xflr5 v6.61

 Calculated polar for: GAW-1 17%

 1 1 Reynolds number fixed          Mach number fixed         

 xtrf =   1.000 (top)        1.000 (bottom)
 Mach =   0.233     Re =     0.788 e 6     Ncrit =   9.000

  alpha     CL        CD       CDp       Cm    Top Xtr Bot Xtr   Cpmin    Chinge    XCp    
 ------- -------- --------- --------- -------- ------- ------- -------- --------- ---------
  -8.000  -0.3120   0.01450   0.00847  -0.1211  0.8238  0.0204  -3.2546   0.0000   0.0000   0.0000  -0.1621
  -7.750  -0.3046   0.01394   0.00787  -0.1180  0.8204  0.0207  -3.1726   0.0000   0.0000   0.0000  -0.1610
  -7.500  -0.2983   0.01343   0.00730  -0.1146  0.8164  0.0212  -3.0935   0.0000   0.0000   0.0000  -0.1573
  -7.250  -0.2958   0.01305   0.00686  -0.1104  0.8122  0.0218  -3.0236   0.0000   0.0000   0.0000  -0.1456
  -7.000  -0.2861   0.01268   0.00643  -0.1075  0.8084  0.0227  -2.9348   0.0000   0.0000   0.0000  -0.1478
  -6.750  -0.2678   0.01240   0.00608  -0.1060  0.8047  0.0241  -2.8145   0.0000   0.0000   0.0000  -0.1681
  -6.500  -0.2449   0.01225   0.00590  -0.1051  0.8003  0.0250  -2.6667   0.0000   0.0000   0.0000  -0.2026
  -6.250  -0.2260   0.01186   0.00547  -0.1037  0.7979  0.0292  -2.5640   0.0000   0.0000   0.0000  -0.2326
  -6.000  -0.2042   0.01152   0.00518  -0.1027  0.7956  0.0336  -2.4354   0.0000   0.0000   0.0000  -0.2779
  -5.750  -0.1813   0.01119   0.00491  -0.1019  0.7932  0.0392  -2.3001   0.0000   0.0000   0.0000  -0.3389
  -5.500  -0.1570   0.01089   0.00464  -0.1014  0.7906  0.0500  -2.1591   0.0000   0.0000   0.0000  -0.4247
  -5.250  -0.1312   0.01063   0.00441  -0.1011  0.7881  0.0643  -2.0195   0.0000   0.0000   0.0000  -0.5534
  -5.000  -0.1047   0.01039   0.00423  -0.1009  0.7857  0.0757  -1.8767   0.0000   0.0000   0.0000  -0.7523
  -4.750  -0.0791   0.01001   0.00400  -0.1007  0.7833  0.1091  -1.7393   0.0000   0.0000   0.0000  -1.0707
  -4.500  -0.0517   0.00974   0.00381  -0.1008  0.7807  0.1356  -1.5996   0.0000   0.0000   0.0000  -1.7693
  -4.250  -0.0245   0.00937   0.00359  -0.1010  0.7775  0.1756  -1.4647   0.0000   0.0000   0.0000  -4.0098
  -4.000   0.0032   0.00892   0.00341  -0.1015  0.7743  0.2346  -1.3323   0.0000   0.0000   0.0000  32.9747
  -3.750   0.0319   0.00847   0.00321  -0.1020  0.7728  0.2991  -1.2007   0.0000   0.0000   0.0000   3.5366
  -3.500   0.0616   0.00784   0.00294  -0.1030  0.7708  0.3949  -1.0720   0.0000   0.0000   0.0000   1.9646
  -3.250   0.0929   0.00726   0.00274  -0.1042  0.7684  0.4991  -0.9420   0.0000   0.0000   0.0000   1.3974
  -3.000   0.1246   0.00704   0.00276  -0.1050  0.7659  0.5790  -0.8414   0.0000   0.0000   0.0000   1.1096
  -2.750   0.1558   0.00705   0.00282  -0.1054  0.7638  0.6049  -0.7463   0.0000   0.0000   0.0000   0.9382
  -2.500   0.1870   0.00709   0.00286  -0.1058  0.7616  0.6175  -0.6540   0.0000   0.0000   0.0000   0.8243
  -2.250   0.2185   0.00714   0.00286  -0.1062  0.7595  0.6256  -0.6024   0.0000   0.0000   0.0000   0.7426
  -2.000   0.2492   0.00717   0.00293  -0.1065  0.7574  0.6345  -0.6150   0.0000   0.0000   0.0000   0.6820
  -1.750   0.2803   0.00724   0.00298  -0.1068  0.7547  0.6414  -0.6278   0.0000   0.0000   0.0000   0.6344
  -1.500   0.3118   0.00741   0.00308  -0.1073  0.7496  0.6480  -0.6407   0.0000   0.0000   0.0000   0.5963
  -1.250   0.3418   0.00736   0.00305  -0.1074  0.7467  0.6533  -0.6533   0.0000   0.0000   0.0000   0.5655
  -1.000   0.3716   0.00735   0.00308  -0.1074  0.7431  0.6592  -0.6657   0.0000   0.0000   0.0000   0.5396
  -0.750   0.4017   0.00735   0.00308  -0.1075  0.7380  0.6641  -0.6835   0.0000   0.0000   0.0000   0.5174
  -0.500   0.4318   0.00733   0.00302  -0.1075  0.7318  0.6683  -0.7118   0.0000   0.0000   0.0000   0.4982
  -0.250   0.4622   0.00743   0.00305  -0.1076  0.7236  0.6733  -0.7510   0.0000   0.0000   0.0000   0.4815
   0.000   0.4912   0.00739   0.00304  -0.1075  0.7183  0.6791  -0.7904   0.0000   0.0000   0.0000   0.4670
   0.250   0.5207   0.00741   0.00311  -0.1075  0.7143  0.6837  -0.8305   0.0000   0.0000   0.0000   0.4541
   0.500   0.5504   0.00745   0.00315  -0.1075  0.7102  0.6871  -0.8795   0.0000   0.0000   0.0000   0.4426
   0.750   0.5801   0.00752   0.00322  -0.1075  0.7057  0.6916  -0.9378   0.0000   0.0000   0.0000   0.4322
   1.000   0.6097   0.00762   0.00328  -0.1075  0.6987  0.6956  -0.9970   0.0000   0.0000   0.0000   0.4228
   1.250   0.6382   0.00760   0.00328  -0.1073  0.6901  0.6979  -1.0558   0.0000   0.0000   0.0000   0.4143
   1.500   0.6670   0.00764   0.00328  -0.1071  0.6805  0.6996  -1.1158   0.0000   0.0000   0.0000   0.4064
   1.750   0.6956   0.00762   0.00324  -0.1070  0.6721  0.7028  -1.1762   0.0000   0.0000   0.0000   0.3993
   2.000   0.7241   0.00760   0.00325  -0.1069  0.6628  0.7055  -1.2373   0.0000   0.0000   0.0000   0.3927
   2.250   0.7511   0.00765   0.00326  -0.1064  0.6505  0.7073  -1.3050   0.0000   0.0000   0.0000   0.3864
   2.500   0.7783   0.00769   0.00330  -0.1059  0.6356  0.7089  -1.3746   0.0000   0.0000   0.0000   0.3806
   2.750   0.8021   0.00781   0.00334  -0.1048  0.6101  0.7106  -1.4408   0.0000   0.0000   0.0000   0.3749
   3.000   0.8178   0.00813   0.00347  -0.1021  0.5626  0.7123  -1.4972   0.0000   0.0000   0.0000   0.3687
   3.250   0.8272   0.00863   0.00371  -0.0983  0.5034  0.7142  -1.5458   0.0000   0.0000   0.0000   0.3624
   3.750   0.8395   0.00956   0.00424  -0.0896  0.4115  0.7181  -1.6350   0.0000   0.0000   0.0000   0.3496
   4.000   0.8450   0.00997   0.00451  -0.0852  0.3756  0.7200  -1.6790   0.0000   0.0000   0.0000   0.3433
   4.250   0.8495   0.01052   0.00488  -0.0807  0.3388  0.7218  -1.7215   0.0000   0.0000   0.0000   0.3372
   4.500   0.8536   0.01113   0.00532  -0.0763  0.3045  0.7236  -1.7637   0.0000   0.0000   0.0000   0.3312
   4.750   0.8656   0.01158   0.00568  -0.0734  0.2807  0.7251  -1.8173   0.0000   0.0000   0.0000   0.3263
   5.000   0.8725   0.01213   0.00609  -0.0698  0.2495  0.7283  -1.8634   0.0000   0.0000   0.0000   0.3211
   5.250   0.8869   0.01252   0.00644  -0.0674  0.2338  0.7306  -1.9209   0.0000   0.0000   0.0000   0.3168
   5.500   0.8957   0.01311   0.00692  -0.0642  0.2115  0.7327  -1.9703   0.0000   0.0000   0.0000   0.3121
   5.750   0.9104   0.01356   0.00734  -0.0620  0.1931  0.7347  -2.0278   0.0000   0.0000   0.0000   0.3082
   6.250   0.9328   0.01477   0.00838  -0.0567  0.1650  0.7391  -2.1349   0.0000   0.0000   0.0000   0.3002
   6.500   0.9444   0.01542   0.00893  -0.0543  0.1521  0.7414  -2.1890   0.0000   0.0000   0.0000   0.2964
   6.750   0.9613   0.01587   0.00939  -0.0526  0.1446  0.7435  -2.2519   0.0000   0.0000   0.0000   0.2933
   7.000   0.9764   0.01643   0.00989  -0.0507  0.1353  0.7457  -2.3122   0.0000   0.0000   0.0000   0.2902
   7.250   0.9906   0.01704   0.01047  -0.0487  0.1241  0.7476  -2.3700   0.0000   0.0000   0.0000   0.2871
   7.500   1.0082   0.01752   0.01095  -0.0472  0.1193  0.7492  -2.4629   0.0000   0.0000   0.0000   0.2844
   7.750   1.0234   0.01812   0.01150  -0.0455  0.1121  0.7512  -2.5546   0.0000   0.0000   0.0000   0.2817
   8.000   1.0358   0.01884   0.01219  -0.0434  0.1025  0.7548  -2.6393   0.0000   0.0000   0.0000   0.2788
   8.250   1.0512   0.01943   0.01283  -0.0417  0.0988  0.7578  -2.7332   0.0000   0.0000   0.0000   0.2762
   8.500   1.0697   0.01991   0.01335  -0.0405  0.0967  0.7606  -2.8372   0.0000   0.0000   0.0000   0.2739
   8.750   1.0870   0.02046   0.01392  -0.0391  0.0938  0.7633  -2.9394   0.0000   0.0000   0.0000   0.2717
   9.000   1.1025   0.02112   0.01464  -0.0376  0.0913  0.7660  -3.0405   0.0000   0.0000   0.0000   0.2694
   9.250   1.1174   0.02182   0.01535  -0.0360  0.0889  0.7688  -3.1394   0.0000   0.0000   0.0000   0.2671
   9.500   1.1326   0.02253   0.01607  -0.0345  0.0862  0.7715  -3.2390   0.0000   0.0000   0.0000   0.2650
   9.750   1.1471   0.02331   0.01686  -0.0329  0.0832  0.7740  -3.3371   0.0000   0.0000   0.0000   0.2628
  10.000   1.1589   0.02423   0.01782  -0.0312  0.0801  0.7775  -3.4280   0.0000   0.0000   0.0000   0.2606
  10.250   1.1694   0.02524   0.01892  -0.0293  0.0771  0.7816  -3.5145   0.0000   0.0000   0.0000   0.2583
  10.500   1.1789   0.02636   0.02014  -0.0274  0.0746  0.7852  -3.5982   0.0000   0.0000   0.0000   0.2561
  10.750   1.1964   0.02702   0.02084  -0.0263  0.0744  0.7888  -3.7110   0.0000   0.0000   0.0000   0.2544
  11.000   1.2144   0.02767   0.02152  -0.0253  0.0739  0.7923  -3.8271   0.0000   0.0000   0.0000   0.2529
  11.250   1.2329   0.02831   0.02219  -0.0244  0.0732  0.7958  -3.9461   0.0000   0.0000   0.0000   0.2514
  11.500   1.2511   0.02898   0.02290  -0.0235  0.0723  0.7987  -4.0652   0.0000   0.0000   0.0000   0.2500
  11.750   1.2682   0.02972   0.02369  -0.0226  0.0711  0.8025  -4.1818   0.0000   0.0000   0.0000   0.2485
  12.000   1.2829   0.03059   0.02462  -0.0214  0.0698  0.8072  -4.2917   0.0000   0.0000   0.0000   0.2469
  12.250   1.2975   0.03149   0.02558  -0.0203  0.0682  0.8115  -4.4020   0.0000   0.0000   0.0000   0.2454
  12.500   1.3121   0.03243   0.02661  -0.0192  0.0664  0.8157  -4.5122   0.0000   0.0000   0.0000   0.2439
  12.750   1.3265   0.03343   0.02764  -0.0181  0.0644  0.8199  -4.6231   0.0000   0.0000   0.0000   0.2425
  13.000   1.3389   0.03460   0.02883  -0.0170  0.0623  0.8236  -4.7288   0.0000   0.0000   0.0000   0.2411
  13.250   1.3511   0.03580   0.03005  -0.0160  0.0599  0.8284  -4.8342   0.0000   0.0000   0.0000   0.2397
  13.500   1.3619   0.03709   0.03140  -0.0148  0.0568  0.8341  -4.9340   0.0000   0.0000   0.0000   0.2382
  13.750   1.3681   0.03878   0.03317  -0.0135  0.0533  0.8395  -5.0150   0.0000   0.0000   0.0000   0.2367
  14.000   1.3689   0.04099   0.03551  -0.0120  0.0497  0.8448  -5.0705   0.0000   0.0000   0.0000   0.2351
  14.250   1.3866   0.04188   0.03644  -0.0115  0.0491  0.8497  -5.2155   0.0000   0.0000   0.0000   0.2341
  14.500   1.4015   0.04292   0.03754  -0.0108  0.0481  0.8569  -5.3611   0.0000   0.0000   0.0000   0.2330
  14.750   1.4134   0.04424   0.03892  -0.0101  0.0463  0.8642  -5.4950   0.0000   0.0000   0.0000   0.2318
  15.000   1.4237   0.04576   0.04046  -0.0094  0.0441  0.8714  -5.6225   0.0000   0.0000   0.0000   0.2307
  15.250   1.4303   0.04761   0.04231  -0.0086  0.0418  0.8797  -5.7355   0.0000   0.0000   0.0000   0.2296
  15.500   1.4304   0.05004   0.04478  -0.0077  0.0392  0.8907  -5.8181   0.0000   0.0000   0.0000   0.2284
  16.000   1.4264   0.05487   0.04994  -0.0055  0.0367  1.0000  -5.9604   0.0000   0.0000   0.0000   0.2257
  16.250   1.4314   0.05740   0.05256  -0.0056  0.0362  1.0000  -6.0611   0.0000   0.0000   0.0000   0.2252
  16.500   1.4338   0.06026   0.05551  -0.0058  0.0357  1.0000  -6.1499   0.0000   0.0000   0.0000   0.2247
  16.750   1.4341   0.06345   0.05879  -0.0062  0.0352  1.0000  -6.2282   0.0000   0.0000   0.0000   0.2244
  17.000   1.4356   0.06655   0.06199  -0.0068  0.0347  1.0000  -6.3115   0.0000   0.0000   0.0000   0.2241
  17.250   1.4387   0.06950   0.06502  -0.0073  0.0342  1.0000  -6.4014   0.0000   0.0000   0.0000   0.2238
  17.500   1.4402   0.07274   0.06835  -0.0081  0.0337  1.0000  -6.4826   0.0000   0.0000   0.0000   0.2237
  17.750   1.4346   0.07707   0.07280  -0.0095  0.0334  1.0000  -6.5274   0.0000   0.0000   0.0000   0.2241
  18.000   1.4339   0.08080   0.07662  -0.0107  0.0330  1.0000  -6.5947   0.0000   0.0000   0.0000   0.2243
  18.250   1.4294   0.08519   0.08112  -0.0123  0.0327  1.0000  -6.6403   0.0000   0.0000   0.0000   0.2248
  18.500   1.4231   0.08996   0.08600  -0.0144  0.0323  1.0000  -6.6738   0.0000   0.0000   0.0000   0.2256
  18.750   1.4195   0.09436   0.09050  -0.0163  0.0320  1.0000  -6.7194   0.0000   0.0000   0.0000   0.2263
  19.000   1.4082   0.10012   0.09638  -0.0192  0.0318  1.0000  -6.7182   0.0000   0.0000   0.0000   0.2278
  19.250   1.4028   0.10495   0.10131  -0.0216  0.0315  1.0000  -6.7478   0.0000   0.0000   0.0000   0.2289
  19.500   1.3905   0.11105   0.10755  -0.0250  0.0312  1.0000  -6.7318   0.0000   0.0000   0.0000   0.2309
  19.750   1.3812   0.11671   0.11331  -0.0282  0.0310  1.0000  -6.7299   0.0000   0.0000   0.0000   0.2326
  20.000   1.3722   0.12230   0.11900  -0.0314  0.0307  1.0000  -6.7266   0.0000   0.0000   0.0000   0.2344
  20.250   1.3549   0.12954   0.12638  -0.0359  0.0305  1.0000  -6.6615   0.0000   0.0000   0.0000   0.2374
  20.500   1.3463   0.13508   0.13204  -0.0393  0.0302  1.0000  -6.6521   0.0000   0.0000   0.0000   0.2394
  20.750   1.3270   0.14274   0.13983  -0.0443  0.0301  1.0000  -6.5593   0.0000   0.0000   0.0000   0.2430
  21.000   1.3169   0.14858   0.14576  -0.0481  0.0298  1.0000  -6.5271   0.0000   0.0000   0.0000   0.2454
  21.250   1.3098   0.15388   0.15114  -0.0515  0.0294  1.0000  -6.5113   0.0000   0.0000   0.0000   0.2476
  21.500   1.2968   0.16036   0.15772  -0.0558  0.0291  1.0000  -6.4442   0.0000   0.0000   0.0000   0.2508
  21.750   1.2807   0.16752   0.16499  -0.0607  0.0288  1.0000  -6.3434   0.0000   0.0000   0.0000   0.2545
  22.000   1.2597   0.17568   0.17326  -0.0662  0.0285  1.0000  -6.1917   0.0000   0.0000   0.0000   0.2592
  22.250   1.2340   0.18487   0.18258  -0.0725  0.0281  1.0000  -5.9830   0.0000   0.0000   0.0000   0.2649
  22.500   1.1949   0.19697   0.19481  -0.0807  0.0277  1.0000  -5.6256   0.0000   0.0000   0.0000   0.2735
  23.250   0.9810   0.26454   0.26266  -0.1169  0.0228  1.0000  -2.3780   0.0000   0.0000   0.0000   0.3288
  23.500   0.9812   0.26917   0.26729  -0.1193  0.0236  1.0000  -2.2484   0.0000   0.0000   0.0000   0.3308


