xflr5 v6.61

 Calculated polar for: GAW-1 15%

 3 1 Reynolds number ~ 1/CL         Mach number fixed         

 xtrf =   1.000 (top)        1.000 (bottom)
 Mach =   0.240     Re =     0.060 e 6     Ncrit =   9.000

  alpha     CL        CD       CDp       Cm    Top Xtr Bot Xtr   Cpmin    Chinge    XCp    
 ------- -------- --------- --------- -------- ------- ------- -------- --------- ---------
  -6.500  -0.3561   0.00850   0.00422  -0.0866  0.7480  0.0123  -3.2037   0.0000   0.0000   0.0000  -0.0068
  -6.250  -0.3238   0.00809   0.00377  -0.0874  0.7467  0.0123  -3.0303   0.0000   0.0000   0.0000  -0.0340
  -6.000  -0.2915   0.00779   0.00344  -0.0882  0.7450  0.0124  -2.8479   0.0000   0.0000   0.0000  -0.0671
  -5.750  -0.2582   0.00725   0.00276  -0.0892  0.7427  0.0124  -2.7350   0.0000   0.0000   0.0000  -0.1111
  -5.500  -0.2256   0.00700   0.00246  -0.0900  0.7397  0.0124  -2.5783   0.0000   0.0000   0.0000  -0.1655
  -5.250  -0.1933   0.00685   0.00226  -0.0907  0.7357  0.0124  -2.4063   0.0000   0.0000   0.0000  -0.2372
  -5.000  -0.1611   0.00674   0.00211  -0.0913  0.7303  0.0125  -2.2333   0.0000   0.0000   0.0000  -0.3370
  -4.750  -0.1290   0.00664   0.00200  -0.0920  0.7251  0.0125  -2.0612   0.0000   0.0000   0.0000  -0.4865
  -4.500  -0.0966   0.00652   0.00189  -0.0926  0.7242  0.0165  -1.9054   0.0000   0.0000   0.0000  -0.7377
  -4.250  -0.0644   0.00640   0.00180  -0.0933  0.7233  0.0201  -1.7373   0.0000   0.0000   0.0000  -1.2409
  -4.000  -0.0321   0.00629   0.00171  -0.0941  0.7216  0.0231  -1.5726   0.0000   0.0000   0.0000  -2.7562
  -3.750   0.0001   0.00619   0.00164  -0.0947  0.7186  0.0263  -1.4133   0.0000   0.0000   0.0000  1670.6055
  -3.500   0.0268   0.00722   0.00199  -0.0940  0.7481  0.0668  -1.2673   0.0000   0.0000   0.0000   3.8356
  -3.250   0.0603   0.00746   0.00235  -0.0966  0.7812  0.2925  -1.1137   0.0000   0.0000   0.0000   1.8822
  -3.000   0.0981   0.00763   0.00315  -0.1005  0.8042  0.6064  -0.9555   0.0000   0.0000   0.0000   1.2922
  -2.750   0.1280   0.00902   0.00435  -0.1011  0.8175  0.6524  -0.8200   0.0000   0.0000   0.0000   1.0523
  -2.500   0.1562   0.01041   0.00551  -0.1011  0.8271  0.6764  -0.6936   0.0000   0.0000   0.0000   0.9063
  -2.250   0.1806   0.01180   0.00683  -0.1003  0.8327  0.6923  -0.6050   0.0000   0.0000   0.0000   0.8123
  -2.000   0.2025   0.01334   0.00829  -0.0988  0.8373  0.7083  -0.5269   0.0000   0.0000   0.0000   0.7436
  -1.750   0.2224   0.01500   0.00985  -0.0968  0.8406  0.7270  -0.5185   0.0000   0.0000   0.0000   0.6896
  -1.500   0.2357   0.01636   0.01121  -0.0929  0.8409  0.7374  -0.5215   0.0000   0.0000   0.0000   0.6473
  -1.250   0.2558   0.01782   0.01250  -0.0919  0.8427  0.7510  -0.5285   0.0000   0.0000   0.0000   0.6116
  -1.000   0.2675   0.01876   0.01342  -0.0882  0.8400  0.7570  -0.5354   0.0000   0.0000   0.0000   0.5814
  -0.750   0.2800   0.01984   0.01444  -0.0849  0.8375  0.7663  -0.5422   0.0000   0.0000   0.0000   0.5544
  -0.500   0.2951   0.02090   0.01538  -0.0828  0.8353  0.7780  -0.5575   0.0000   0.0000   0.0000   0.5310
  -0.250   0.3060   0.02163   0.01608  -0.0785  0.8323  0.7861  -0.5770   0.0000   0.0000   0.0000   0.5063
   0.000   0.3244   0.02285   0.01715  -0.0774  0.8307  0.8002  -0.6048   0.0000   0.0000   0.0000   0.4878
   0.250   0.3348   0.02327   0.01754  -0.0729  0.8283  0.8076  -0.6289   0.0000   0.0000   0.0000   0.4663
   0.500   0.3494   0.02416   0.01836  -0.0703  0.8267  0.8185  -0.6551   0.0000   0.0000   0.0000   0.4492
   0.750   0.3569   0.02515   0.01931  -0.0682  0.8166  0.8261  -0.6826   0.0000   0.0000   0.0000   0.4387
   1.000   0.3656   0.02535   0.01949  -0.0637  0.8095  0.8336  -0.7169   0.0000   0.0000   0.0000   0.4214
   1.250   0.3835   0.02596   0.01999  -0.0616  0.8062  0.8461  -0.7600   0.0000   0.0000   0.0000   0.4072
   1.500   0.4018   0.02627   0.02020  -0.0592  0.8036  0.8561  -0.8042   0.0000   0.0000   0.0000   0.3935
   1.750   0.4215   0.02663   0.02045  -0.0569  0.8012  0.8674  -0.8506   0.0000   0.0000   0.0000   0.3808
   2.000   0.4273   0.02738   0.02119  -0.0542  0.7856  0.8749  -0.8803   0.0000   0.0000   0.0000   0.3722
   2.250   0.4430   0.02708   0.02084  -0.0504  0.7809  0.8856  -0.9245   0.0000   0.0000   0.0000   0.3589
   2.500   0.4686   0.02743   0.02106  -0.0495  0.7780  0.8990  -0.9780   0.0000   0.0000   0.0000   0.3505
   2.750   0.4740   0.02757   0.02121  -0.0457  0.7639  0.9048  -1.0114   0.0000   0.0000   0.0000   0.3408
   3.000   0.4935   0.02744   0.02101  -0.0433  0.7572  0.9166  -1.0663   0.0000   0.0000   0.0000   0.3318
   3.250   0.5194   0.02731   0.02077  -0.0420  0.7534  0.9299  -1.1295   0.0000   0.0000   0.0000   0.3247
   3.500   0.5287   0.02752   0.02100  -0.0389  0.7398  0.9387  -1.1712   0.0000   0.0000   0.0000   0.3171
   3.750   0.5523   0.02747   0.02088  -0.0377  0.7322  0.9525  -1.2320   0.0000   0.0000   0.0000   0.3115
   4.250   0.6595   0.02897   0.02221  -0.0481  0.7130  1.0000  -1.4271   0.0000   0.0000   0.0000   0.3159
   4.500   0.6957   0.02817   0.02131  -0.0481  0.7035  1.0000  -1.5092   0.0000   0.0000   0.0000   0.3119
   4.750   0.6996   0.02752   0.02071  -0.0432  0.6837  1.0000  -1.5486   0.0000   0.0000   0.0000   0.3042
   5.000   0.7259   0.02675   0.01991  -0.0417  0.6674  1.0000  -1.6186   0.0000   0.0000   0.0000   0.2996
   5.250   0.7667   0.02563   0.01872  -0.0419  0.6500  1.0000  -1.7097   0.0000   0.0000   0.0000   0.2966
   5.500   0.7731   0.02529   0.01844  -0.0379  0.6175  1.0000  -1.7598   0.0000   0.0000   0.0000   0.2906
   5.750   0.8028   0.02444   0.01750  -0.0365  0.5771  1.0000  -1.8683   0.0000   0.0000   0.0000   0.2867
   6.250   0.8645   0.02434   0.01617  -0.0336  0.4113  1.0000  -2.0907   0.0000   0.0000   0.0000   0.2796
   6.500   0.8898   0.02612   0.01718  -0.0331  0.3481  1.0000  -2.1846   0.0000   0.0000   0.0000   0.2777
   6.750   0.9125   0.02778   0.01861  -0.0327  0.3119  1.0000  -2.2712   0.0000   0.0000   0.0000   0.2761
   7.000   0.9479   0.02989   0.02048  -0.0342  0.2841  1.0000  -2.3779   0.0000   0.0000   0.0000   0.2761
   7.250   0.9756   0.03168   0.02212  -0.0346  0.2642  1.0000  -2.4758   0.0000   0.0000   0.0000   0.2752
   7.500   1.0229   0.03518   0.02534  -0.0380  0.2483  1.0000  -2.5962   0.0000   0.0000   0.0000   0.2767
   7.750   1.0470   0.03741   0.02781  -0.0380  0.2418  1.0000  -2.6734   0.0000   0.0000   0.0000   0.2757
   8.000   1.0693   0.04001   0.03064  -0.0380  0.2352  1.0000  -2.7428   0.0000   0.0000   0.0000   0.2746
   8.250   1.0872   0.04258   0.03341  -0.0375  0.2276  1.0000  -2.8057   0.0000   0.0000   0.0000   0.2733
   8.500   1.1037   0.04494   0.03587  -0.0368  0.2188  1.0000  -2.8726   0.0000   0.0000   0.0000   0.2719
   8.750   1.1224   0.04754   0.03845  -0.0364  0.2103  1.0000  -2.9463   0.0000   0.0000   0.0000   0.2706
   9.000   1.1361   0.05152   0.04275  -0.0359  0.2045  1.0000  -2.9933   0.0000   0.0000   0.0000   0.2696
   9.250   1.1293   0.05744   0.04898  -0.0344  0.1994  1.0000  -2.9758   0.0000   0.0000   0.0000   0.2681
   9.500   1.1218   0.05989   0.05178  -0.0316  0.1963  1.0000  -2.9780   0.0000   0.0000   0.0000   0.2655
   9.750   1.1096   0.06261   0.05479  -0.0288  0.1922  1.0000  -2.9705   0.0000   0.0000   0.0000   0.2629
  10.000   1.1020   0.06548   0.05787  -0.0269  0.1868  1.0000  -2.9750   0.0000   0.0000   0.0000   0.2610
  10.250   1.1301   0.06726   0.05946  -0.0269  0.1787  1.0000  -3.0754   0.0000   0.0000   0.0000   0.2600
  10.500   0.6177   0.01503   0.00968   0.0415  0.1622  1.0000  -2.1560   0.0000   0.0000   0.0000   0.1723
  10.750   0.6112   0.01671   0.01149   0.0415  0.1583  1.0000  -2.1633   0.0000   0.0000   0.0000   0.1713
  11.000   1.0516   0.08054   0.07356  -0.0239  0.1637  1.0000  -2.9369   0.0000   0.0000   0.0000   0.2576
  11.250   1.0255   0.08641   0.07966  -0.0251  0.1596  1.0000  -2.8729   0.0000   0.0000   0.0000   0.2590
  11.500   1.0124   0.09181   0.08518  -0.0265  0.1560  1.0000  -2.8380   0.0000   0.0000   0.0000   0.2602
  11.750   1.0173   0.09584   0.08920  -0.0267  0.1529  1.0000  -2.8734   0.0000   0.0000   0.0000   0.2600
  12.000   1.0177   0.10136   0.09472  -0.0273  0.1500  1.0000  -2.8912   0.0000   0.0000   0.0000   0.2602
  12.250   0.9287   0.11862   0.11244  -0.0395  0.1473  1.0000  -2.5134   0.0000   0.0000   0.0000   0.2756
  12.500   0.8852   0.13400   0.12784  -0.0498  0.1460  1.0000  -2.2583   0.0000   0.0000   0.0000   0.2894
  12.750   0.8089   0.16321   0.15746  -0.0707  0.2110  1.0000  -1.6339   0.0000   0.0000   0.0000   0.3213
  13.000   0.8082   0.16885   0.16310  -0.0737  0.2114  1.0000  -1.5990   0.0000   0.0000   0.0000   0.3249
  13.500   0.8258   0.17873   0.17294  -0.0768  0.2083  1.0000  -1.6179   0.0000   0.0000   0.0000   0.3261
  14.000   0.8495   0.18939   0.18353  -0.0791  0.2054  1.0000  -1.6630   0.0000   0.0000   0.0000   0.3257
  14.250   0.8630   0.19561   0.18972  -0.0800  0.2039  1.0000  -1.6918   0.0000   0.0000   0.0000   0.3250
  14.500   0.8729   0.21281   0.20700  -0.0808  0.1996  1.0000  -1.6904   0.0000   0.0000   0.0000   0.3248
  14.750   0.8741   0.21557   0.20975  -0.0837  0.1990  1.0000  -1.6726   0.0000   0.0000   0.0000   0.3275
  15.000   0.8442   0.20418   0.19825  -0.0911  0.1871  1.0000  -1.5628   0.0000   0.0000   0.0000   0.3388
  15.250   0.8520   0.20758   0.20177  -0.0931  0.1838  1.0000  -1.5669   0.0000   0.0000   0.0000   0.3397
  15.750   0.8745   0.21579   0.20992  -0.0957  0.1792  1.0000  -1.6118   0.0000   0.0000   0.0000   0.3392
  16.250   0.9265   0.23358   0.22764  -0.0933  0.1750  1.0000  -1.7719   0.0000   0.0000   0.0000   0.3300
  16.500   0.8856   0.22600   0.22005  -0.1042  0.1645  1.0000  -1.5699   0.0000   0.0000   0.0000   0.3459
  16.750   0.8949   0.22931   0.22334  -0.1059  0.1589  1.0000  -1.5829   0.0000   0.0000   0.0000   0.3462
  17.000   0.9056   0.23327   0.22728  -0.1072  0.1562  1.0000  -1.5976   0.0000   0.0000   0.0000   0.3459
  17.250   0.9181   0.23782   0.23181  -0.1082  0.1540  1.0000  -1.6189   0.0000   0.0000   0.0000   0.3449
  17.500   0.9328   0.24362   0.23759  -0.1087  0.1523  1.0000  -1.6475   0.0000   0.0000   0.0000   0.3432
  17.750   0.9506   0.25180   0.24575  -0.1087  0.1511  1.0000  -1.6836   0.0000   0.0000   0.0000   0.3407
  18.000   0.9714   0.26352   0.25745  -0.1082  0.1501  1.0000  -1.7253   0.0000   0.0000   0.0000   0.3375
  18.250   0.9730   0.26788   0.26176  -0.1117  0.1492  1.0000  -1.6802   0.0000   0.0000   0.0000   0.3405
  18.500   0.9500   0.25672   0.25059  -0.1217  0.1431  1.0000  -1.5207   0.0000   0.0000   0.0000   0.3528
  18.750   0.9573   0.25973   0.25357  -0.1246  0.1393  1.0000  -1.5052   0.0000   0.0000   0.0000   0.3543
  19.000   0.9659   0.26314   0.25696  -0.1269  0.1366  1.0000  -1.5010   0.0000   0.0000   0.0000   0.3550
  19.250   0.9752   0.26668   0.26048  -0.1291  0.1343  1.0000  -1.5204   0.0000   0.0000   0.0000   0.3555
  19.500   0.9848   0.27036   0.26415  -0.1311  0.1325  1.0000  -1.5430   0.0000   0.0000   0.0000   0.3557
  19.750   0.9947   0.27425   0.26802  -0.1329  0.1309  1.0000  -1.5685   0.0000   0.0000   0.0000   0.3557
  20.000   1.0050   0.27846   0.27222  -0.1346  0.1296  1.0000  -1.5969   0.0000   0.0000   0.0000   0.3555
  20.250   1.0157   0.28319   0.27694  -0.1361  0.1284  1.0000  -1.6282   0.0000   0.0000   0.0000   0.3551
  20.500   1.0269   0.28875   0.28259  -0.1374  0.1274  1.0000  -1.6595   0.0000   0.0000   0.0000   0.3544
  20.750   1.0387   0.29563   0.28948  -0.1383  0.1266  1.0000  -1.6944   0.0000   0.0000   0.0000   0.3533
  21.000   1.0514   0.30470   0.29855  -0.1390  0.1258  1.0000  -1.7356   0.0000   0.0000   0.0000   0.3519
  21.250   1.0655   0.31740   0.31127  -0.1391  0.1252  1.0000  -1.7819   0.0000   0.0000   0.0000   0.3500
  21.500   1.0805   0.33379   0.32763  -0.1391  0.1247  1.0000  -1.8263   0.0000   0.0000   0.0000   0.3480
  21.750   1.0824   0.33192   0.32575  -0.1435  0.1245  1.0000  -1.7980   0.0000   0.0000   0.0000   0.3510
  22.000   1.0843   0.32788   0.32168  -0.1483  0.1241  1.0000  -1.7654   0.0000   0.0000   0.0000   0.3544
  22.250   1.0863   0.32301   0.31679  -0.1535  0.1235  1.0000  -1.7283   0.0000   0.0000   0.0000   0.3581
  22.500   1.0892   0.31901   0.31276  -0.1587  0.1224  1.0000  -1.6901   0.0000   0.0000   0.0000   0.3617
  22.750   1.0948   0.31874   0.31249  -0.1630  0.1204  1.0000  -1.6671   0.0000   0.0000   0.0000   0.3641
  23.000   1.1021   0.32100   0.31474  -0.1663  0.1183  1.0000  -1.6592   0.0000   0.0000   0.0000   0.3654
  23.250   1.1099   0.32404   0.31778  -0.1692  0.1163  1.0000  -1.6576   0.0000   0.0000   0.0000   0.3663
  23.500   1.1180   0.32728   0.32103  -0.1719  0.1139  1.0000  -1.6901   0.0000   0.0000   0.0000   0.3670
  23.750   1.1264   0.33069   0.32444  -0.1743  0.1110  1.0000  -1.7278   0.0000   0.0000   0.0000   0.3673
  24.000   1.1352   0.33439   0.32814  -0.1764  0.1080  1.0000  -1.7732   0.0000   0.0000   0.0000   0.3673
  24.250   1.1445   0.33868   0.33244  -0.1781  0.1055  1.0000  -1.8250   0.0000   0.0000   0.0000   0.3669
  24.500   1.1538   0.34362   0.33739  -0.1797  0.1039  1.0000  -1.8750   0.0000   0.0000   0.0000   0.3664
  24.750   1.1637   0.34994   0.34379  -0.1810  0.1026  1.0000  -1.9268   0.0000   0.0000   0.0000   0.3655
  25.000   1.1743   0.35904   0.35291  -0.1816  0.1015  1.0000  -1.9891   0.0000   0.0000   0.0000   0.3642


