xflr5 v6.61

 Calculated polar for: GAW-1 12%

 1 1 Reynolds number fixed          Mach number fixed         

 xtrf =   1.000 (top)        1.000 (bottom)
 Mach =   0.233     Re =     0.788 e 6     Ncrit =   9.000

  alpha     CL        CD       CDp       Cm    Top Xtr Bot Xtr   Cpmin    Chinge    XCp    
 ------- -------- --------- --------- -------- ------- ------- -------- --------- ---------
  -8.000  -0.4797   0.02506   0.02111  -0.0889  0.9338  0.0123  -4.1721   0.0000   0.0000   0.0000   0.0553
  -7.500  -0.4712   0.01799   0.01318  -0.0838  0.9110  0.0153  -4.3209   0.0000   0.0000   0.0000   0.0631
  -7.250  -0.4487   0.01737   0.01247  -0.0829  0.9037  0.0164  -4.0891   0.0000   0.0000   0.0000   0.0562
  -7.000  -0.4250   0.01673   0.01174  -0.0822  0.8974  0.0174  -3.8664   0.0000   0.0000   0.0000   0.0476
  -6.750  -0.4010   0.01597   0.01088  -0.0815  0.8917  0.0182  -3.6608   0.0000   0.0000   0.0000   0.0379
  -6.500  -0.3766   0.01514   0.00995  -0.0808  0.8859  0.0188  -3.4649   0.0000   0.0000   0.0000   0.0266
  -6.250  -0.3520   0.01433   0.00903  -0.0800  0.8802  0.0193  -3.2748   0.0000   0.0000   0.0000   0.0136
  -6.000  -0.3269   0.01356   0.00815  -0.0794  0.8744  0.0196  -3.0879   0.0000   0.0000   0.0000  -0.0019
  -5.750  -0.3019   0.01281   0.00733  -0.0787  0.8703  0.0198  -2.9046   0.0000   0.0000   0.0000  -0.0201
  -5.500  -0.2767   0.01212   0.00657  -0.0781  0.8656  0.0200  -2.7237   0.0000   0.0000   0.0000  -0.0417
  -5.250  -0.2510   0.01156   0.00590  -0.0776  0.8609  0.0205  -2.5420   0.0000   0.0000   0.0000  -0.0688
  -5.000  -0.2247   0.01108   0.00535  -0.0772  0.8563  0.0211  -2.3514   0.0000   0.0000   0.0000  -0.1036
  -4.750  -0.1980   0.01063   0.00480  -0.0769  0.8511  0.0215  -2.1870   0.0000   0.0000   0.0000  -0.1490
  -4.500  -0.1707   0.01015   0.00425  -0.0767  0.8472  0.0216  -2.0702   0.0000   0.0000   0.0000  -0.2106
  -4.250  -0.1428   0.00974   0.00377  -0.0766  0.8434  0.0219  -1.9533   0.0000   0.0000   0.0000  -0.2988
  -4.000  -0.1142   0.00940   0.00335  -0.0765  0.8395  0.0226  -1.8367   0.0000   0.0000   0.0000  -0.4343
  -3.750  -0.0853   0.00914   0.00303  -0.0765  0.8358  0.0243  -1.7199   0.0000   0.0000   0.0000  -0.6650
  -3.500  -0.0568   0.00864   0.00264  -0.0766  0.8320  0.0557  -1.6393   0.0000   0.0000   0.0000  -1.1224
  -3.250  -0.0283   0.00815   0.00239  -0.0770  0.8279  0.1284  -1.4964   0.0000   0.0000   0.0000  -2.5162
  -3.000   0.0005   0.00748   0.00217  -0.0777  0.8239  0.2358  -1.3454   0.0000   0.0000   0.0000  169.5851
  -2.750   0.0299   0.00685   0.00197  -0.0785  0.8209  0.3588  -1.1944   0.0000   0.0000   0.0000   2.9055
  -2.500   0.0599   0.00621   0.00179  -0.0793  0.8172  0.4957  -1.0456   0.0000   0.0000   0.0000   1.5887
  -2.250   0.0899   0.00590   0.00183  -0.0797  0.8133  0.6122  -0.8998   0.0000   0.0000   0.0000   1.1450
  -2.000   0.1199   0.00589   0.00187  -0.0798  0.8096  0.6400  -0.7589   0.0000   0.0000   0.0000   0.9209
  -1.750   0.1500   0.00592   0.00188  -0.0799  0.8063  0.6555  -0.6230   0.0000   0.0000   0.0000   0.7863
  -1.500   0.1801   0.00600   0.00195  -0.0800  0.8022  0.6711  -0.4927   0.0000   0.0000   0.0000   0.6968
  -1.250   0.2100   0.00603   0.00197  -0.0802  0.7975  0.6791  -0.4318   0.0000   0.0000   0.0000   0.6331
  -1.000   0.2394   0.00601   0.00198  -0.0801  0.7915  0.6873  -0.4433   0.0000   0.0000   0.0000   0.5853
  -0.750   0.2688   0.00602   0.00195  -0.0800  0.7835  0.6946  -0.4611   0.0000   0.0000   0.0000   0.5477
  -0.500   0.2982   0.00608   0.00193  -0.0799  0.7725  0.6998  -0.4970   0.0000   0.0000   0.0000   0.5176
  -0.250   0.3270   0.00603   0.00193  -0.0797  0.7633  0.7083  -0.5484   0.0000   0.0000   0.0000   0.4930
   0.000   0.3564   0.00608   0.00200  -0.0796  0.7578  0.7154  -0.6014   0.0000   0.0000   0.0000   0.4723
   0.250   0.3859   0.00617   0.00202  -0.0796  0.7496  0.7205  -0.6553   0.0000   0.0000   0.0000   0.4549
   0.500   0.4154   0.00618   0.00204  -0.0796  0.7391  0.7248  -0.7157   0.0000   0.0000   0.0000   0.4399
   0.750   0.4442   0.00617   0.00202  -0.0794  0.7294  0.7310  -0.7792   0.0000   0.0000   0.0000   0.4269
   1.000   0.4734   0.00621   0.00206  -0.0793  0.7211  0.7351  -0.8441   0.0000   0.0000   0.0000   0.4155
   1.250   0.5024   0.00624   0.00209  -0.0792  0.7078  0.7390  -0.9100   0.0000   0.0000   0.0000   0.4053
   1.500   0.5312   0.00629   0.00210  -0.0791  0.6926  0.7423  -0.9767   0.0000   0.0000   0.0000   0.3963
   1.750   0.5597   0.00637   0.00211  -0.0789  0.6747  0.7448  -1.0439   0.0000   0.0000   0.0000   0.3881
   2.000   0.5879   0.00647   0.00214  -0.0786  0.6500  0.7470  -1.1119   0.0000   0.0000   0.0000   0.3808
   2.250   0.6147   0.00666   0.00219  -0.0781  0.6069  0.7490  -1.1789   0.0000   0.0000   0.0000   0.3739
   2.500   0.6364   0.00715   0.00233  -0.0768  0.5209  0.7514  -1.2451   0.0000   0.0000   0.0000   0.3672
   2.750   0.6569   0.00775   0.00257  -0.0753  0.4269  0.7550  -1.3392   0.0000   0.0000   0.0000   0.3610
   3.000   0.6772   0.00839   0.00290  -0.0739  0.3452  0.7583  -1.4357   0.0000   0.0000   0.0000   0.3552
   3.250   0.6995   0.00891   0.00317  -0.0728  0.2843  0.7616  -1.5373   0.0000   0.0000   0.0000   0.3499
   3.500   0.7225   0.00939   0.00344  -0.0717  0.2345  0.7649  -1.6420   0.0000   0.0000   0.0000   0.3450
   3.750   0.7457   0.00985   0.00371  -0.0708  0.1904  0.7679  -1.7490   0.0000   0.0000   0.0000   0.3404
   4.000   0.7671   0.01044   0.00402  -0.0696  0.1534  0.7707  -1.8542   0.0000   0.0000   0.0000   0.3359
   4.250   0.7908   0.01086   0.00429  -0.0687  0.1251  0.7733  -1.9669   0.0000   0.0000   0.0000   0.3319
   4.500   0.8158   0.01116   0.00452  -0.0680  0.1098  0.7760  -2.0851   0.0000   0.0000   0.0000   0.3281
   4.750   0.8407   0.01142   0.00475  -0.0672  0.0974  0.7800  -2.2048   0.0000   0.0000   0.0000   0.3245
   5.000   0.8661   0.01164   0.00504  -0.0665  0.0930  0.7834  -2.3211   0.0000   0.0000   0.0000   0.3211
   5.250   0.8902   0.01196   0.00530  -0.0656  0.0850  0.7869  -2.4499   0.0000   0.0000   0.0000   0.3177
   5.500   0.9136   0.01233   0.00567  -0.0645  0.0760  0.7905  -2.6059   0.0000   0.0000   0.0000   0.3144
   5.750   0.9391   0.01254   0.00591  -0.0638  0.0741  0.7942  -2.7756   0.0000   0.0000   0.0000   0.3114
   6.000   0.9648   0.01274   0.00614  -0.0631  0.0720  0.7975  -2.9503   0.0000   0.0000   0.0000   0.3087
   6.250   0.9896   0.01299   0.00640  -0.0623  0.0680  0.8005  -3.1250   0.0000   0.0000   0.0000   0.3059
   6.500   1.0123   0.01329   0.00668  -0.0611  0.0618  0.8056  -3.2955   0.0000   0.0000   0.0000   0.3030
   6.750   1.0330   0.01372   0.00710  -0.0595  0.0515  0.8101  -3.4568   0.0000   0.0000   0.0000   0.3000
   7.000   1.0561   0.01398   0.00740  -0.0584  0.0473  0.8148  -3.6343   0.0000   0.0000   0.0000   0.2973
   7.250   1.0759   0.01445   0.00777  -0.0567  0.0407  0.8197  -3.8014   0.0000   0.0000   0.0000   0.2945
   7.500   1.0946   0.01496   0.00828  -0.0548  0.0364  0.8240  -3.9591   0.0000   0.0000   0.0000   0.2916
   7.750   1.1121   0.01529   0.00872  -0.0526  0.0347  0.8298  -4.1132   0.0000   0.0000   0.0000   0.2885
   8.000   1.1275   0.01568   0.00917  -0.0501  0.0330  0.8358  -4.2653   0.0000   0.0000   0.0000   0.2853
   8.250   1.1432   0.01614   0.00967  -0.0476  0.0315  0.8419  -4.4231   0.0000   0.0000   0.0000   0.2822
   8.500   1.1586   0.01666   0.01022  -0.0452  0.0299  0.8478  -4.5809   0.0000   0.0000   0.0000   0.2792
   8.750   1.1717   0.01725   0.01088  -0.0425  0.0281  0.8549  -4.7251   0.0000   0.0000   0.0000   0.2761
   9.000   1.1806   0.01806   0.01182  -0.0391  0.0261  0.8632  -4.8395   0.0000   0.0000   0.0000   0.2727
   9.250   1.1902   0.01889   0.01278  -0.0360  0.0248  0.8719  -4.9596   0.0000   0.0000   0.0000   0.2695
   9.500   1.2075   0.01924   0.01319  -0.0341  0.0244  0.8814  -5.1423   0.0000   0.0000   0.0000   0.2671
   9.750   1.2226   0.01966   0.01369  -0.0318  0.0239  0.8939  -5.3130   0.0000   0.0000   0.0000   0.2645
  10.000   1.2343   0.02017   0.01432  -0.0290  0.0232  0.9112  -5.4631   0.0000   0.0000   0.0000   0.2616
  10.250   1.2402   0.02067   0.01500  -0.0253  0.0225  1.0000  -5.5830   0.0000   0.0000   0.0000   0.2581
  10.500   1.2534   0.02162   0.01604  -0.0233  0.0218  1.0000  -5.7220   0.0000   0.0000   0.0000   0.2560
  10.750   1.2648   0.02271   0.01723  -0.0212  0.0212  1.0000  -5.8491   0.0000   0.0000   0.0000   0.2537
  11.000   1.2744   0.02393   0.01857  -0.0189  0.0208  1.0000  -5.9664   0.0000   0.0000   0.0000   0.2514
  11.250   1.2830   0.02528   0.02004  -0.0167  0.0205  1.0000  -6.0775   0.0000   0.0000   0.0000   0.2492
  11.500   1.2902   0.02677   0.02167  -0.0144  0.0203  1.0000  -6.1804   0.0000   0.0000   0.0000   0.2470
  11.750   1.2955   0.02847   0.02356  -0.0122  0.0202  1.0000  -6.2729   0.0000   0.0000   0.0000   0.2448
  12.000   1.2998   0.03030   0.02556  -0.0100  0.0201  1.0000  -6.3576   0.0000   0.0000   0.0000   0.2427
  12.250   1.3022   0.03234   0.02776  -0.0079  0.0200  1.0000  -6.4312   0.0000   0.0000   0.0000   0.2406
  12.500   1.3029   0.03459   0.03019  -0.0059  0.0199  1.0000  -6.4938   0.0000   0.0000   0.0000   0.2387
  12.750   1.3009   0.03710   0.03289  -0.0041  0.0199  1.0000  -6.5415   0.0000   0.0000   0.0000   0.2368
  13.000   1.2963   0.03991   0.03589  -0.0025  0.0199  1.0000  -6.5740   0.0000   0.0000   0.0000   0.2351
  13.250   1.2890   0.04307   0.03924  -0.0011  0.0199  1.0000  -6.5908   0.0000   0.0000   0.0000   0.2337
  13.500   1.2790   0.04662   0.04298  -0.0002  0.0200  1.0000  -6.5905   0.0000   0.0000   0.0000   0.2325
  13.750   1.2662   0.05062   0.04717   0.0002  0.0200  1.0000  -6.5724   0.0000   0.0000   0.0000   0.2317
  14.000   1.2508   0.05517   0.05192  -0.0000  0.0201  1.0000  -6.5362   0.0000   0.0000   0.0000   0.2314
  14.250   1.2327   0.06040   0.05734  -0.0012  0.0201  1.0000  -6.4793   0.0000   0.0000   0.0000   0.2318
  14.500   1.2120   0.06648   0.06360  -0.0033  0.0202  1.0000  -6.3984   0.0000   0.0000   0.0000   0.2331
  14.750   1.1894   0.07346   0.07078  -0.0067  0.0202  1.0000  -6.2929   0.0000   0.0000   0.0000   0.2354
  15.000   1.1634   0.08187   0.07937  -0.0117  0.0203  1.0000  -6.1479   0.0000   0.0000   0.0000   0.2393
  15.250   1.1339   0.09198   0.08967  -0.0183  0.0204  1.0000  -5.9509   0.0000   0.0000   0.0000   0.2450
  15.500   1.0956   0.10525   0.10313  -0.0275  0.0205  1.0000  -5.6416   0.0000   0.0000   0.0000   0.2537
  16.500   0.8648   0.19176   0.18992  -0.0778  0.0240  1.0000  -2.4470   0.0000   0.0000   0.0000   0.3211
  16.750   0.8606   0.19995   0.19812  -0.0812  0.0249  1.0000  -2.2779   0.0000   0.0000   0.0000   0.3254
  17.000   0.8659   0.20450   0.20268  -0.0836  0.0248  1.0000  -2.2669   0.0000   0.0000   0.0000   0.3272
  17.250   0.8715   0.20893   0.20711  -0.0859  0.0248  1.0000  -2.2572   0.0000   0.0000   0.0000   0.3289
  17.500   0.8772   0.21326   0.21145  -0.0882  0.0248  1.0000  -2.2475   0.0000   0.0000   0.0000   0.3306
  17.750   0.8831   0.21748   0.21568  -0.0905  0.0247  1.0000  -2.2355   0.0000   0.0000   0.0000   0.3321
  18.000   0.8892   0.22154   0.21974  -0.0928  0.0246  1.0000  -2.2197   0.0000   0.0000   0.0000   0.3336
  18.250   0.8989   0.22382   0.22202  -0.0948  0.0236  1.0000  -2.2706   0.0000   0.0000   0.0000   0.3343
  18.500   0.9032   0.22857   0.22678  -0.0976  0.0221  1.0000  -2.1785   0.0000   0.0000   0.0000   0.3366
  18.750   0.9070   0.23366   0.23186  -0.1001  0.0217  1.0000  -2.0638   0.0000   0.0000   0.0000   0.3386
  19.000   0.9119   0.23830   0.23650  -0.1025  0.0216  1.0000  -1.9849   0.0000   0.0000   0.0000   0.3403
  19.250   0.9174   0.24260   0.24081  -0.1048  0.0212  1.0000  -1.9308   0.0000   0.0000   0.0000   0.3418
  19.500   0.9230   0.24773   0.24594  -0.1065  0.0240  1.0000  -1.9054   0.0000   0.0000   0.0000   0.3424
  19.750   0.9289   0.25186   0.25007  -0.1087  0.0241  1.0000  -1.9200   0.0000   0.0000   0.0000   0.3436
  20.000   0.9349   0.25578   0.25399  -0.1108  0.0240  1.0000  -1.9368   0.0000   0.0000   0.0000   0.3448
  20.250   0.9409   0.25954   0.25775  -0.1130  0.0239  1.0000  -1.9550   0.0000   0.0000   0.0000   0.3460
  20.500   0.9470   0.26304   0.26125  -0.1152  0.0237  1.0000  -1.9735   0.0000   0.0000   0.0000   0.3470
  20.750   0.9545   0.26563   0.26384  -0.1176  0.0197  1.0000  -2.0042   0.0000   0.0000   0.0000   0.3482
  21.000   0.9623   0.26807   0.26628  -0.1194  0.0176  1.0000  -2.0889   0.0000   0.0000   0.0000   0.3485
  21.250   0.9696   0.27075   0.26900  -0.1213  0.0169  1.0000  -2.1582   0.0000   0.0000   0.0000   0.3489
  21.500   0.9778   0.27282   0.27106  -0.1230  0.0158  1.0000  -2.2640   0.0000   0.0000   0.0000   0.3490
  21.750   0.9867   0.27447   0.27273  -0.1245  0.0150  1.0000  -2.3980   0.0000   0.0000   0.0000   0.3488
  22.000   0.9964   0.27573   0.27400  -0.1259  0.0143  1.0000  -2.5655   0.0000   0.0000   0.0000   0.3482


