xflr5 v6.61

 Calculated polar for: GAW-2 13%

 1 1 Reynolds number fixed          Mach number fixed         

 xtrf =   1.000 (top)        1.000 (bottom)
 Mach =   0.233     Re =     0.788 e 6     Ncrit =   9.000

  alpha     CL        CD       CDp       Cm    Top Xtr Bot Xtr   Cpmin    Chinge    XCp    
 ------- -------- --------- --------- -------- ------- ------- -------- --------- ---------
  -8.000  -0.3973   0.01830   0.01345  -0.1106  0.9128  0.0170  -3.8912   0.0000   0.0000   0.0000  -0.0412
  -7.750  -0.3731   0.01793   0.01301  -0.1101  0.9071  0.0179  -3.6771   0.0000   0.0000   0.0000  -0.0581
  -7.500  -0.3483   0.01730   0.01227  -0.1097  0.9010  0.0186  -3.4965   0.0000   0.0000   0.0000  -0.0782
  -7.250  -0.3258   0.01639   0.01126  -0.1089  0.8961  0.0190  -3.3614   0.0000   0.0000   0.0000  -0.0975
  -7.000  -0.3035   0.01520   0.00994  -0.1079  0.8910  0.0189  -3.2647   0.0000   0.0000   0.0000  -0.1191
  -6.750  -0.2810   0.01401   0.00860  -0.1068  0.8858  0.0185  -3.1781   0.0000   0.0000   0.0000  -0.1442
  -6.500  -0.2578   0.01303   0.00750  -0.1059  0.8807  0.0183  -3.0730   0.0000   0.0000   0.0000  -0.1755
  -6.250  -0.2334   0.01226   0.00660  -0.1053  0.8749  0.0182  -2.9576   0.0000   0.0000   0.0000  -0.2165
  -6.000  -0.2095   0.01160   0.00586  -0.1046  0.8712  0.0182  -2.8379   0.0000   0.0000   0.0000  -0.2652
  -5.750  -0.1843   0.01103   0.00522  -0.1041  0.8669  0.0184  -2.7087   0.0000   0.0000   0.0000  -0.3322
  -5.500  -0.1577   0.01056   0.00467  -0.1038  0.8626  0.0188  -2.5728   0.0000   0.0000   0.0000  -0.4271
  -5.250  -0.1302   0.01014   0.00415  -0.1037  0.8584  0.0194  -2.4342   0.0000   0.0000   0.0000  -0.5676
  -5.000  -0.1017   0.00984   0.00379  -0.1037  0.8543  0.0208  -2.2889   0.0000   0.0000   0.0000  -0.7950
  -4.750  -0.0724   0.00967   0.00358  -0.1039  0.8496  0.0232  -2.1291   0.0000   0.0000   0.0000  -1.2186
  -4.500  -0.0436   0.00956   0.00350  -0.1039  0.8465  0.0248  -1.9531   0.0000   0.0000   0.0000  -2.1858
  -4.250  -0.0147   0.00944   0.00341  -0.1040  0.8426  0.0259  -1.7806   0.0000   0.0000   0.0000  -6.9858
  -4.000   0.0141   0.00911   0.00305  -0.1041  0.8387  0.0308  -1.6405   0.0000   0.0000   0.0000   7.7516
  -3.750   0.0434   0.00890   0.00286  -0.1043  0.8351  0.0357  -1.4879   0.0000   0.0000   0.0000   2.6928
  -3.500   0.0730   0.00865   0.00265  -0.1046  0.8315  0.0481  -1.3430   0.0000   0.0000   0.0000   1.7063
  -3.250   0.1027   0.00834   0.00248  -0.1051  0.8273  0.0935  -1.1954   0.0000   0.0000   0.0000   1.2876
  -3.000   0.1325   0.00780   0.00229  -0.1059  0.8236  0.1922  -1.0794   0.0000   0.0000   0.0000   1.0597
  -2.750   0.1624   0.00718   0.00211  -0.1069  0.8206  0.3157  -0.9733   0.0000   0.0000   0.0000   0.9154
  -2.500   0.1931   0.00660   0.00194  -0.1079  0.8168  0.4368  -0.8675   0.0000   0.0000   0.0000   0.8142
  -2.250   0.2239   0.00612   0.00188  -0.1087  0.8118  0.5651  -0.7630   0.0000   0.0000   0.0000   0.7394
  -2.000   0.2538   0.00606   0.00193  -0.1088  0.8062  0.6191  -0.6620   0.0000   0.0000   0.0000   0.6815
  -1.750   0.2841   0.00619   0.00204  -0.1089  0.7997  0.6500  -0.5631   0.0000   0.0000   0.0000   0.6354
  -1.250   0.3426   0.00623   0.00215  -0.1087  0.7893  0.6775  -0.5359   0.0000   0.0000   0.0000   0.5681
  -1.000   0.3717   0.00626   0.00222  -0.1085  0.7842  0.6872  -0.5491   0.0000   0.0000   0.0000   0.5424
  -0.750   0.4014   0.00632   0.00223  -0.1085  0.7779  0.6927  -0.5719   0.0000   0.0000   0.0000   0.5204
  -0.500   0.4310   0.00635   0.00224  -0.1086  0.7716  0.6962  -0.6124   0.0000   0.0000   0.0000   0.5015
  -0.250   0.4607   0.00636   0.00224  -0.1087  0.7656  0.6990  -0.6582   0.0000   0.0000   0.0000   0.4851
   0.000   0.4898   0.00635   0.00220  -0.1086  0.7569  0.7032  -0.7132   0.0000   0.0000   0.0000   0.4706
   0.250   0.5184   0.00637   0.00219  -0.1084  0.7465  0.7072  -0.7684   0.0000   0.0000   0.0000   0.4577
   0.500   0.5469   0.00637   0.00219  -0.1082  0.7345  0.7102  -0.8246   0.0000   0.0000   0.0000   0.4461
   0.750   0.5755   0.00644   0.00221  -0.1080  0.7244  0.7137  -0.8816   0.0000   0.0000   0.0000   0.4356
   1.000   0.6048   0.00646   0.00226  -0.1080  0.7163  0.7176  -0.9402   0.0000   0.0000   0.0000   0.4263
   1.250   0.6334   0.00653   0.00229  -0.1078  0.7050  0.7213  -1.0027   0.0000   0.0000   0.0000   0.4176
   1.500   0.6620   0.00661   0.00234  -0.1077  0.6932  0.7243  -1.0713   0.0000   0.0000   0.0000   0.4098
   1.750   0.6895   0.00666   0.00235  -0.1073  0.6772  0.7284  -1.1396   0.0000   0.0000   0.0000   0.4025
   2.000   0.7166   0.00674   0.00240  -0.1068  0.6563  0.7321  -1.2084   0.0000   0.0000   0.0000   0.3956
   2.250   0.7408   0.00694   0.00248  -0.1057  0.6196  0.7350  -1.2746   0.0000   0.0000   0.0000   0.3890
   2.500   0.7589   0.00742   0.00267  -0.1035  0.5473  0.7377  -1.3343   0.0000   0.0000   0.0000   0.3825
   2.750   0.7753   0.00804   0.00295  -0.1011  0.4708  0.7404  -1.3914   0.0000   0.0000   0.0000   0.3762
   3.000   0.7917   0.00870   0.00327  -0.0988  0.3979  0.7432  -1.4509   0.0000   0.0000   0.0000   0.3704
   3.250   0.8103   0.00926   0.00357  -0.0970  0.3378  0.7458  -1.5227   0.0000   0.0000   0.0000   0.3650
   3.500   0.8286   0.00984   0.00387  -0.0951  0.2838  0.7484  -1.5951   0.0000   0.0000   0.0000   0.3598
   3.750   0.8482   0.01033   0.00416  -0.0934  0.2398  0.7508  -1.6705   0.0000   0.0000   0.0000   0.3549
   4.000   0.8670   0.01079   0.00443  -0.0916  0.1995  0.7547  -1.7457   0.0000   0.0000   0.0000   0.3502
   4.250   0.8876   0.01116   0.00470  -0.0901  0.1738  0.7578  -1.8250   0.0000   0.0000   0.0000   0.3458
   4.500   0.9088   0.01149   0.00499  -0.0886  0.1567  0.7608  -1.9074   0.0000   0.0000   0.0000   0.3415
   4.750   0.9308   0.01178   0.00525  -0.0873  0.1426  0.7641  -2.0144   0.0000   0.0000   0.0000   0.3375
   5.000   0.9503   0.01217   0.00555  -0.0855  0.1250  0.7675  -2.1177   0.0000   0.0000   0.0000   0.3334
   5.250   0.9704   0.01242   0.00579  -0.0838  0.1174  0.7707  -2.2246   0.0000   0.0000   0.0000   0.3295
   5.500   0.9870   0.01277   0.00606  -0.0814  0.1073  0.7735  -2.3244   0.0000   0.0000   0.0000   0.3254
   5.750   1.0045   0.01311   0.00640  -0.0792  0.0992  0.7767  -2.4266   0.0000   0.0000   0.0000   0.3215
   6.000   1.0253   0.01331   0.00665  -0.0777  0.0966  0.7810  -2.5408   0.0000   0.0000   0.0000   0.3180
   6.250   1.0449   0.01359   0.00695  -0.0759  0.0921  0.7847  -2.6538   0.0000   0.0000   0.0000   0.3146
   6.500   1.0629   0.01396   0.00728  -0.0739  0.0859  0.7886  -2.7645   0.0000   0.0000   0.0000   0.3112
   6.750   1.0787   0.01442   0.00773  -0.0715  0.0782  0.7927  -2.8687   0.0000   0.0000   0.0000   0.3077
   7.000   1.0976   0.01475   0.00809  -0.0697  0.0744  0.7966  -2.9852   0.0000   0.0000   0.0000   0.3046
   7.250   1.1199   0.01496   0.00831  -0.0685  0.0725  0.7997  -3.1158   0.0000   0.0000   0.0000   0.3019
   7.500   1.1398   0.01523   0.00861  -0.0669  0.0688  0.8053  -3.2406   0.0000   0.0000   0.0000   0.2992
   7.750   1.1571   0.01561   0.00899  -0.0650  0.0639  0.8106  -3.3593   0.0000   0.0000   0.0000   0.2962
   8.000   1.1733   0.01610   0.00946  -0.0629  0.0550  0.8157  -3.4755   0.0000   0.0000   0.0000   0.2933
   8.250   1.1904   0.01656   0.00996  -0.0609  0.0498  0.8206  -3.6000   0.0000   0.0000   0.0000   0.2905
   8.500   1.2096   0.01694   0.01037  -0.0593  0.0485  0.8248  -3.7590   0.0000   0.0000   0.0000   0.2881
   8.750   1.2266   0.01735   0.01082  -0.0574  0.0461  0.8313  -3.9129   0.0000   0.0000   0.0000   0.2855
   9.000   1.2427   0.01785   0.01133  -0.0554  0.0430  0.8374  -4.0662   0.0000   0.0000   0.0000   0.2829
   9.250   1.2580   0.01845   0.01189  -0.0534  0.0395  0.8437  -4.2185   0.0000   0.0000   0.0000   0.2803
   9.500   1.2740   0.01902   0.01248  -0.0515  0.0370  0.8494  -4.3748   0.0000   0.0000   0.0000   0.2779
   9.750   1.2898   0.01952   0.01305  -0.0495  0.0355  0.8573  -4.5335   0.0000   0.0000   0.0000   0.2755
  10.000   1.3053   0.02008   0.01366  -0.0475  0.0333  0.8656  -4.6936   0.0000   0.0000   0.0000   0.2732
  10.250   1.3196   0.02075   0.01435  -0.0455  0.0308  0.8740  -4.8516   0.0000   0.0000   0.0000   0.2708
  10.500   1.3319   0.02144   0.01508  -0.0432  0.0282  0.8860  -5.0034   0.0000   0.0000   0.0000   0.2684
  11.000   1.3523   0.02260   0.01647  -0.0377  0.0247  0.9604  -5.2949   0.0000   0.0000   0.0000   0.2630
  11.500   1.3842   0.02417   0.01819  -0.0349  0.0237  1.0000  -5.6419   0.0000   0.0000   0.0000   0.2595
  11.750   1.3985   0.02506   0.01913  -0.0333  0.0229  1.0000  -5.8120   0.0000   0.0000   0.0000   0.2576
  12.000   1.4125   0.02598   0.02010  -0.0318  0.0217  1.0000  -5.9837   0.0000   0.0000   0.0000   0.2559
  12.250   1.4260   0.02697   0.02112  -0.0303  0.0203  1.0000  -6.1674   0.0000   0.0000   0.0000   0.2541
  12.500   1.4378   0.02806   0.02225  -0.0287  0.0187  1.0000  -6.3695   0.0000   0.0000   0.0000   0.2524
  12.750   1.4493   0.02923   0.02344  -0.0271  0.0168  1.0000  -6.5733   0.0000   0.0000   0.0000   0.2506
  13.000   1.4595   0.03050   0.02475  -0.0255  0.0150  1.0000  -6.7741   0.0000   0.0000   0.0000   0.2490
  13.250   1.4700   0.03178   0.02608  -0.0241  0.0131  1.0000  -6.9797   0.0000   0.0000   0.0000   0.2473
  13.500   1.4808   0.03308   0.02744  -0.0227  0.0122  1.0000  -7.1914   0.0000   0.0000   0.0000   0.2458
  13.750   1.4896   0.03454   0.02897  -0.0213  0.0117  1.0000  -7.3966   0.0000   0.0000   0.0000   0.2442
  14.000   1.4985   0.03607   0.03056  -0.0200  0.0109  1.0000  -7.6062   0.0000   0.0000   0.0000   0.2427
  14.250   1.5046   0.03784   0.03240  -0.0187  0.0097  1.0000  -7.8024   0.0000   0.0000   0.0000   0.2413
  15.000   1.5014   0.04566   0.04040  -0.0153  0.0045  1.0000  -8.2711   0.0000   0.0000   0.0000   0.2375
  15.250   1.5010   0.04843   0.04326  -0.0147  0.0043  1.0000  -8.4311   0.0000   0.0000   0.0000   0.2365
  15.500   1.4990   0.05147   0.04641  -0.0143  0.0040  1.0000  -8.5790   0.0000   0.0000   0.0000   0.2357
  15.750   1.4959   0.05477   0.04982  -0.0143  0.0038  1.0000  -8.7178   0.0000   0.0000   0.0000   0.2350
  16.000   1.4924   0.05831   0.05347  -0.0145  0.0036  1.0000  -8.8519   0.0000   0.0000   0.0000   0.2346
  16.250   1.4877   0.06219   0.05748  -0.0152  0.0034  1.0000  -8.9735   0.0000   0.0000   0.0000   0.2345
  16.500   1.4816   0.06646   0.06188  -0.0163  0.0033  1.0000  -9.0801   0.0000   0.0000   0.0000   0.2346
  16.750   1.4736   0.07122   0.06679  -0.0179  0.0032  1.0000  -9.1653   0.0000   0.0000   0.0000   0.2351
  17.000   1.4636   0.07654   0.07225  -0.0200  0.0031  1.0000  -9.2251   0.0000   0.0000   0.0000   0.2361
  17.250   1.4504   0.08267   0.07853  -0.0230  0.0030  1.0000  -9.2453   0.0000   0.0000   0.0000   0.2376
  17.500   1.4343   0.08966   0.08568  -0.0268  0.0030  1.0000  -9.2233   0.0000   0.0000   0.0000   0.2398
  17.750   1.4139   0.09781   0.09400  -0.0315  0.0030  1.0000  -9.1397   0.0000   0.0000   0.0000   0.2429
  18.000   1.3888   0.10720   0.10357  -0.0374  0.0030  1.0000  -8.9835   0.0000   0.0000   0.0000   0.2470
  18.250   1.3581   0.11805   0.11461  -0.0444  0.0030  1.0000  -8.7375   0.0000   0.0000   0.0000   0.2523
  18.500   1.3216   0.13031   0.12706  -0.0525  0.0031  1.0000  -8.3891   0.0000   0.0000   0.0000   0.2589
  18.750   1.2808   0.14359   0.14052  -0.0613  0.0033  1.0000  -7.9506   0.0000   0.0000   0.0000   0.2668
  19.000   1.2412   0.15669   0.15379  -0.0700  0.0036  1.0000  -7.4908   0.0000   0.0000   0.0000   0.2752
  19.250   1.2060   0.16910   0.16636  -0.0782  0.0038  1.0000  -7.0498   0.0000   0.0000   0.0000   0.2835
  19.500   1.1819   0.17920   0.17657  -0.0848  0.0040  1.0000  -6.7390   0.0000   0.0000   0.0000   0.2902
  19.750   1.1519   0.19101   0.18853  -0.0924  0.0043  1.0000  -6.2910   0.0000   0.0000   0.0000   0.2987


