xflr5 v6.61

 Calculated polar for: GA(W)-1 (no flap)

 1 1 Reynolds number fixed          Mach number fixed         

 xtrf =   1.000 (top)        1.000 (bottom)
 Mach =   0.058     Re =     0.197 e 6     Ncrit =   9.000

  alpha     CL        CD       CDp       Cm    Top Xtr Bot Xtr   Cpmin    Chinge    XCp    
 ------- -------- --------- --------- -------- ------- ------- -------- --------- ---------
  -6.000  -0.3007   0.02253   0.01467  -0.0858  0.8754  0.0747  -2.4882   0.0000   0.0000   0.0000  -0.0537
  -5.500  -0.3484   0.02299   0.01520  -0.0689  0.8570  0.0878  -2.4973   0.0000   0.0000   0.0000   0.0374
  -5.000  -0.2961   0.02079   0.01389  -0.0709  0.8535  0.2307  -2.2549   0.0000   0.0000   0.0000  -0.0050
  -3.000  -0.1260   0.02201   0.01666  -0.0620  0.8277  0.6773  -1.2916   0.0000   0.0000   0.0000  -0.2631
  -2.500  -0.0565   0.02294   0.01749  -0.0628  0.8253  0.6975  -1.0129   0.0000   0.0000   0.0000  -0.9018
  -2.000  -0.0769   0.02444   0.01904  -0.0497  0.8068  0.7091  -0.9523   0.0000   0.0000   0.0000  -0.4209
  -1.500  -0.0144   0.02520   0.01976  -0.0490  0.8031  0.7294  -0.7582   0.0000   0.0000   0.0000  -3.2386
  -1.000   0.0519   0.02595   0.02046  -0.0487  0.7986  0.7504  -0.5677   0.0000   0.0000   0.0000   1.2051
   0.000   0.1292   0.02644   0.02093  -0.0414  0.7775  0.7719  -0.5237   0.0000   0.0000   0.0000   0.5705
   0.500   0.2030   0.02610   0.02057  -0.0433  0.7752  0.7809  -0.5866   0.0000   0.0000   0.0000   0.4604
   2.000   0.4361   0.02289   0.01729  -0.0520  0.7512  0.8033  -0.8986   0.0000   0.0000   0.0000   0.3637
   2.500   0.4489   0.02261   0.01708  -0.0440  0.7315  0.8096  -0.9638   0.0000   0.0000   0.0000   0.3416
   3.000   0.5754   0.02052   0.01497  -0.0545  0.7282  0.8141  -1.1568   0.0000   0.0000   0.0000   0.3381
   3.500   0.6225   0.01983   0.01433  -0.0530  0.7114  0.8197  -1.2747   0.0000   0.0000   0.0000   0.3279
   4.000   0.7172   0.01800   0.01249  -0.0589  0.6920  0.8233  -1.4624   0.0000   0.0000   0.0000   0.3244
   4.500   0.7699   0.01703   0.01155  -0.0578  0.6687  0.8274  -1.5989   0.0000   0.0000   0.0000   0.3168
   5.000   0.7907   0.01646   0.01104  -0.0508  0.6370  0.8328  -1.6953   0.0000   0.0000   0.0000   0.3053
   5.500   0.8232   0.01612   0.01062  -0.0462  0.5871  0.8392  -1.8085   0.0000   0.0000   0.0000   0.2965
   6.000   0.8555   0.01640   0.01043  -0.0420  0.4933  0.8466  -1.9218   0.0000   0.0000   0.0000   0.2888
   6.500   0.8574   0.01775   0.01121  -0.0341  0.3983  0.8526  -1.9916   0.0000   0.0000   0.0000   0.2786
   7.000   0.8572   0.01923   0.01234  -0.0262  0.3230  0.8596  -2.0567   0.0000   0.0000   0.0000   0.2686
   7.500   0.8643   0.02104   0.01379  -0.0204  0.2631  0.8673  -2.1293   0.0000   0.0000   0.0000   0.2608
   8.000   0.8865   0.02275   0.01527  -0.0173  0.2198  0.8744  -2.2513   0.0000   0.0000   0.0000   0.2560
   8.500   0.9036   0.02425   0.01668  -0.0129  0.1879  0.8826  -2.3849   0.0000   0.0000   0.0000   0.2500
   9.000   0.9232   0.02595   0.01823  -0.0092  0.1687  0.8932  -2.5261   0.0000   0.0000   0.0000   0.2450
   9.500   0.9498   0.02774   0.01983  -0.0068  0.1522  0.9028  -2.6820   0.0000   0.0000   0.0000   0.2414
  10.000   0.9821   0.02895   0.02126  -0.0043  0.1426  0.9147  -2.8562   0.0000   0.0000   0.0000   0.2380
  10.500   1.0129   0.03033   0.02269  -0.0023  0.1337  0.9290  -3.0313   0.0000   0.0000   0.0000   0.2352
  11.000   1.0543   0.03187   0.02419  -0.0010  0.1239  0.9487  -3.2262   0.0000   0.0000   0.0000   0.2332
  11.500   1.0905   0.03339   0.02595  -0.0013  0.1181  1.0000  -3.4179   0.0000   0.0000   0.0000   0.2328
  12.000   1.1323   0.03549   0.02814  -0.0026  0.1110  1.0000  -3.6238   0.0000   0.0000   0.0000   0.2331
  12.500   1.1727   0.03791   0.03056  -0.0036  0.1043  1.0000  -3.8282   0.0000   0.0000   0.0000   0.2330
  13.000   1.2198   0.04093   0.03382  -0.0049  0.0980  1.0000  -4.0331   0.0000   0.0000   0.0000   0.2332
  13.500   1.2434   0.04372   0.03686  -0.0044  0.0940  1.0000  -4.1926   0.0000   0.0000   0.0000   0.2318
  14.000   1.2621   0.04693   0.04028  -0.0037  0.0887  1.0000  -4.3360   0.0000   0.0000   0.0000   0.2302
  14.500   1.2765   0.05041   0.04388  -0.0029  0.0836  1.0000  -4.4850   0.0000   0.0000   0.0000   0.2286
  15.000   1.2859   0.05605   0.04969  -0.0025  0.0761  1.0000  -4.6189   0.0000   0.0000   0.0000   0.2273
  15.500   1.2792   0.06214   0.05614  -0.0020  0.0732  1.0000  -4.7005   0.0000   0.0000   0.0000   0.2258
  16.000   1.2738   0.06777   0.06205  -0.0022  0.0704  1.0000  -4.7970   0.0000   0.0000   0.0000   0.2248
  16.500   1.2570   0.07553   0.07015  -0.0035  0.0671  1.0000  -4.8331   0.0000   0.0000   0.0000   0.2246
  17.000   1.2270   0.08598   0.08098  -0.0067  0.0645  1.0000  -4.7964   0.0000   0.0000   0.0000   0.2260
  17.500   1.1743   0.10127   0.09674  -0.0135  0.0628  1.0000  -4.6256   0.0000   0.0000   0.0000   0.2308
  19.500   0.6690   0.20209   0.19946  -0.0838  0.0741  0.9196  -1.0988   0.0000   0.0000   0.0000   0.3562
  20.000   0.6766   0.21047   0.20786  -0.0880  0.0737  0.9269  -1.0317   0.0000   0.0000   0.0000   0.3603


