xflr5 v6.61

 Calculated polar for: GAW-2 13%

 1 1 Reynolds number fixed          Mach number fixed         

 xtrf =   1.000 (top)        1.000 (bottom)
 Mach =   0.058     Re =     0.197 e 6     Ncrit =   9.000

  alpha     CL        CD       CDp       Cm    Top Xtr Bot Xtr   Cpmin    Chinge    XCp    
 ------- -------- --------- --------- -------- ------- ------- -------- --------- ---------
  -8.000  -0.4979   0.06517   0.06087  -0.0686  0.9603  0.0752  -2.0755   0.0000   0.0000   0.0000   0.1036
  -7.750  -0.4866   0.06191   0.05737  -0.0705  0.9559  0.0753  -2.0677   0.0000   0.0000   0.0000   0.0964
  -7.500  -0.4973   0.04965   0.04494  -0.0747  0.9524  0.0802  -2.1746   0.0000   0.0000   0.0000   0.0914
  -7.250  -0.4709   0.04707   0.04233  -0.0768  0.9505  0.0827  -2.0798   0.0000   0.0000   0.0000   0.0784
  -7.000  -0.4736   0.04558   0.04079  -0.0730  0.9424  0.0843  -2.0475   0.0000   0.0000   0.0000   0.0877
  -6.750  -0.4593   0.04355   0.03862  -0.0726  0.9373  0.0873  -1.9926   0.0000   0.0000   0.0000   0.0839
  -6.500  -0.4381   0.04134   0.03619  -0.0734  0.9335  0.0912  -1.9404   0.0000   0.0000   0.0000   0.0744
  -6.250  -0.4116   0.03900   0.03357  -0.0747  0.9307  0.0941  -1.8957   0.0000   0.0000   0.0000   0.0603
  -6.000  -0.3868   0.03639   0.03078  -0.0769  0.9285  0.1081  -1.8065   0.0000   0.0000   0.0000   0.0429
  -5.750  -0.3464   0.02661   0.01901  -0.0740  0.9273  0.0372  -2.4531   0.0000   0.0000   0.0000   0.0269
  -5.500  -0.3126   0.02527   0.01751  -0.0753  0.9259  0.0374  -2.3694   0.0000   0.0000   0.0000  -0.0010
  -5.000  -0.2869   0.02329   0.01536  -0.0702  0.9134  0.0385  -2.2796   0.0000   0.0000   0.0000  -0.0045
  -4.750  -0.2606   0.02197   0.01407  -0.0703  0.9099  0.0409  -2.2009   0.0000   0.0000   0.0000  -0.0301
  -4.500  -0.2290   0.02136   0.01344  -0.0714  0.9072  0.0442  -2.0760   0.0000   0.0000   0.0000  -0.0726
  -4.250  -0.1956   0.02095   0.01303  -0.0727  0.9051  0.0482  -1.9460   0.0000   0.0000   0.0000  -0.1335
  -4.000  -0.1615   0.02042   0.01249  -0.0742  0.9033  0.0514  -1.8190   0.0000   0.0000   0.0000  -0.2226
  -3.750  -0.1270   0.01942   0.01144  -0.0759  0.9017  0.0581  -1.7129   0.0000   0.0000   0.0000  -0.3637
  -3.500  -0.0897   0.01894   0.01096  -0.0781  0.9004  0.0674  -1.5778   0.0000   0.0000   0.0000  -0.6411
  -3.000  -0.0700   0.01633   0.01070  -0.0744  0.8874  0.5459  -1.4572   0.0000   0.0000   0.0000  -0.8354
  -2.750  -0.0425   0.01663   0.01126  -0.0736  0.8839  0.6544  -1.3226   0.0000   0.0000   0.0000  -1.5162
  -2.500  -0.0105   0.01695   0.01154  -0.0736  0.8811  0.6858  -1.2069   0.0000   0.0000   0.0000  -6.8811
  -2.250   0.0212   0.01742   0.01205  -0.0731  0.8789  0.7144  -1.0942   0.0000   0.0000   0.0000   3.7615
  -2.000   0.0514   0.01791   0.01257  -0.0723  0.8769  0.7355  -0.9853   0.0000   0.0000   0.0000   1.6779
  -1.750   0.0789   0.01861   0.01332  -0.0703  0.8752  0.7590  -0.8811   0.0000   0.0000   0.0000   1.1523
  -1.250   0.0781   0.01957   0.01431  -0.0591  0.8577  0.7827  -0.7856   0.0000   0.0000   0.0000   1.0154
  -1.000   0.1121   0.01956   0.01426  -0.0600  0.8554  0.7894  -0.6790   0.0000   0.0000   0.0000   0.7891
  -0.750   0.1529   0.01945   0.01409  -0.0624  0.8536  0.7958  -0.5646   0.0000   0.0000   0.0000   0.6598
  -0.500   0.1953   0.01927   0.01387  -0.0648  0.8520  0.8022  -0.4508   0.0000   0.0000   0.0000   0.5826
  -0.250   0.2365   0.01906   0.01366  -0.0664  0.8506  0.8076  -0.4739   0.0000   0.0000   0.0000   0.5309
   0.250   0.2594   0.01933   0.01394  -0.0606  0.8324  0.8208  -0.5147   0.0000   0.0000   0.0000   0.4825
   0.500   0.3099   0.01887   0.01345  -0.0644  0.8306  0.8260  -0.5746   0.0000   0.0000   0.0000   0.4562
   0.750   0.3537   0.01840   0.01301  -0.0666  0.8288  0.8302  -0.6352   0.0000   0.0000   0.0000   0.4362
   1.000   0.4064   0.01771   0.01231  -0.0702  0.8268  0.8337  -0.7132   0.0000   0.0000   0.0000   0.4204
   1.250   0.4173   0.01774   0.01236  -0.0669  0.8156  0.8392  -0.7489   0.0000   0.0000   0.0000   0.4078
   1.500   0.4635   0.01702   0.01163  -0.0696  0.8096  0.8422  -0.8226   0.0000   0.0000   0.0000   0.3973
   1.750   0.5143   0.01630   0.01089  -0.0733  0.8053  0.8448  -0.9024   0.0000   0.0000   0.0000   0.3894
   2.000   0.5708   0.01543   0.00998  -0.0777  0.8002  0.8474  -1.0003   0.0000   0.0000   0.0000   0.3828
   2.250   0.5860   0.01527   0.00987  -0.0752  0.7869  0.8517  -1.0502   0.0000   0.0000   0.0000   0.3747
   2.500   0.6261   0.01458   0.00916  -0.0766  0.7783  0.8542  -1.1330   0.0000   0.0000   0.0000   0.3685
   2.750   0.6498   0.01427   0.00890  -0.0753  0.7664  0.8576  -1.1956   0.0000   0.0000   0.0000   0.3618
   3.000   0.6819   0.01385   0.00853  -0.0755  0.7545  0.8608  -1.2706   0.0000   0.0000   0.0000   0.3564
   3.250   0.7080   0.01363   0.00834  -0.0749  0.7422  0.8650  -1.3376   0.0000   0.0000   0.0000   0.3511
   3.500   0.7381   0.01334   0.00805  -0.0749  0.7276  0.8694  -1.4177   0.0000   0.0000   0.0000   0.3466
   3.750   0.7622   0.01320   0.00795  -0.0740  0.7090  0.8736  -1.4950   0.0000   0.0000   0.0000   0.3420
   4.000   0.7869   0.01295   0.00770  -0.0730  0.6868  0.8771  -1.5749   0.0000   0.0000   0.0000   0.3374
   4.250   0.8072   0.01272   0.00743  -0.0710  0.6563  0.8811  -1.6492   0.0000   0.0000   0.0000   0.3323
   4.500   0.8251   0.01263   0.00721  -0.0686  0.6071  0.8860  -1.7205   0.0000   0.0000   0.0000   0.3272
   4.750   0.8379   0.01289   0.00703  -0.0653  0.5276  0.8919  -1.7885   0.0000   0.0000   0.0000   0.3216
   5.000   0.8421   0.01358   0.00729  -0.0609  0.4414  0.8982  -1.8516   0.0000   0.0000   0.0000   0.3158
   5.250   0.8399   0.01420   0.00754  -0.0555  0.3766  0.9046  -1.9019   0.0000   0.0000   0.0000   0.3093
   5.500   0.8359   0.01475   0.00782  -0.0498  0.3216  0.9127  -1.9484   0.0000   0.0000   0.0000   0.3024
   6.000   0.8423   0.01609   0.00869  -0.0417  0.2369  0.9306  -2.0689   0.0000   0.0000   0.0000   0.2919
   6.250   0.8480   0.01666   0.00911  -0.0381  0.2096  0.9428  -2.1341   0.0000   0.0000   0.0000   0.2870
   6.500   0.8592   0.01726   0.00961  -0.0357  0.1879  0.9582  -2.2108   0.0000   0.0000   0.0000   0.2834
   7.000   0.9032   0.01881   0.01094  -0.0357  0.1553  1.0000  -2.4099   0.0000   0.0000   0.0000   0.2807
   7.250   0.9282   0.01966   0.01177  -0.0361  0.1452  1.0000  -2.5150   0.0000   0.0000   0.0000   0.2798
   7.500   0.9543   0.02033   0.01246  -0.0367  0.1372  1.0000  -2.6263   0.0000   0.0000   0.0000   0.2790
   7.750   0.9783   0.02123   0.01328  -0.0369  0.1295  1.0000  -2.7338   0.0000   0.0000   0.0000   0.2780
   8.000   1.0053   0.02223   0.01425  -0.0375  0.1224  1.0000  -2.8457   0.0000   0.0000   0.0000   0.2773
   8.250   1.0289   0.02278   0.01488  -0.0376  0.1165  1.0000  -2.9573   0.0000   0.0000   0.0000   0.2762
   8.500   1.0510   0.02347   0.01557  -0.0374  0.1105  1.0000  -3.0664   0.0000   0.0000   0.0000   0.2749
   8.750   1.0737   0.02446   0.01664  -0.0373  0.1046  1.0000  -3.1715   0.0000   0.0000   0.0000   0.2738
   9.000   1.1050   0.02594   0.01814  -0.0384  0.0985  1.0000  -3.3082   0.0000   0.0000   0.0000   0.2735
   9.250   1.1257   0.02663   0.01894  -0.0379  0.0952  1.0000  -3.4433   0.0000   0.0000   0.0000   0.2720
   9.500   1.1464   0.02747   0.01987  -0.0373  0.0911  1.0000  -3.5781   0.0000   0.0000   0.0000   0.2706
   9.750   1.1641   0.02827   0.02072  -0.0364  0.0868  1.0000  -3.7094   0.0000   0.0000   0.0000   0.2689
  10.000   1.1776   0.02901   0.02145  -0.0351  0.0824  1.0000  -3.8365   0.0000   0.0000   0.0000   0.2670
  10.250   1.2036   0.03131   0.02376  -0.0357  0.0744  1.0000  -3.9787   0.0000   0.0000   0.0000   0.2666
  10.500   1.2113   0.03143   0.02394  -0.0335  0.0727  1.0000  -4.1009   0.0000   0.0000   0.0000   0.2642
  10.750   1.2200   0.03180   0.02439  -0.0316  0.0697  1.0000  -4.2242   0.0000   0.0000   0.0000   0.2620
  11.000   1.2296   0.03234   0.02499  -0.0299  0.0659  1.0000  -4.3527   0.0000   0.0000   0.0000   0.2600
  11.250   1.2393   0.03296   0.02564  -0.0283  0.0620  1.0000  -4.5049   0.0000   0.0000   0.0000   0.2581
  11.500   1.2486   0.03372   0.02641  -0.0269  0.0586  1.0000  -4.6565   0.0000   0.0000   0.0000   0.2564
  11.750   1.2568   0.03488   0.02756  -0.0254  0.0552  1.0000  -4.7978   0.0000   0.0000   0.0000   0.2546
  12.000   1.2671   0.03767   0.03047  -0.0244  0.0501  1.0000  -4.9093   0.0000   0.0000   0.0000   0.2533
  12.250   1.2783   0.03916   0.03219  -0.0232  0.0492  1.0000  -5.0406   0.0000   0.0000   0.0000   0.2518
  12.500   1.2878   0.04040   0.03357  -0.0221  0.0481  1.0000  -5.1849   0.0000   0.0000   0.0000   0.2503
  12.750   1.2964   0.04180   0.03509  -0.0209  0.0469  1.0000  -5.3255   0.0000   0.0000   0.0000   0.2489
  13.000   1.3042   0.04329   0.03671  -0.0198  0.0457  1.0000  -5.4641   0.0000   0.0000   0.0000   0.2475
  13.250   1.3108   0.04488   0.03841  -0.0188  0.0445  1.0000  -5.5992   0.0000   0.0000   0.0000   0.2462
  13.500   1.3168   0.04652   0.04015  -0.0178  0.0433  1.0000  -5.7342   0.0000   0.0000   0.0000   0.2449
  13.750   1.3218   0.04823   0.04194  -0.0170  0.0423  1.0000  -5.8674   0.0000   0.0000   0.0000   0.2437
  14.000   1.3261   0.05002   0.04380  -0.0162  0.0413  1.0000  -5.9996   0.0000   0.0000   0.0000   0.2426
  14.250   1.3293   0.05195   0.04580  -0.0156  0.0404  1.0000  -6.1276   0.0000   0.0000   0.0000   0.2416
  14.500   1.3308   0.05420   0.04812  -0.0152  0.0395  1.0000  -6.2437   0.0000   0.0000   0.0000   0.2407
  14.750   1.3300   0.05698   0.05098  -0.0149  0.0385  1.0000  -6.3397   0.0000   0.0000   0.0000   0.2400
  15.000   1.3240   0.06085   0.05500  -0.0148  0.0374  1.0000  -6.3878   0.0000   0.0000   0.0000   0.2395
  15.250   1.3226   0.06382   0.05812  -0.0149  0.0371  1.0000  -6.4768   0.0000   0.0000   0.0000   0.2391
  15.500   1.3190   0.06720   0.06169  -0.0154  0.0366  1.0000  -6.5491   0.0000   0.0000   0.0000   0.2389
  15.750   1.3134   0.07102   0.06572  -0.0162  0.0361  1.0000  -6.6048   0.0000   0.0000   0.0000   0.2390
  16.000   1.3070   0.07512   0.07004  -0.0174  0.0355  1.0000  -6.6594   0.0000   0.0000   0.0000   0.2394
  16.250   1.2972   0.08000   0.07512  -0.0192  0.0349  1.0000  -6.6795   0.0000   0.0000   0.0000   0.2403
  16.500   1.2847   0.08561   0.08093  -0.0216  0.0344  1.0000  -6.6717   0.0000   0.0000   0.0000   0.2417
  16.750   1.2680   0.09226   0.08779  -0.0249  0.0339  1.0000  -6.6238   0.0000   0.0000   0.0000   0.2440
  17.000   1.2454   0.10045   0.09622  -0.0294  0.0337  1.0000  -6.5141   0.0000   0.0000   0.0000   0.2475
  17.250   1.2048   0.11298   0.10902  -0.0370  0.0340  1.0000  -6.2180   0.0000   0.0000   0.0000   0.2541
  17.750   0.9332   0.19796   0.19440  -0.0862  0.0354  1.0000  -2.8835   0.0000   0.0000   0.0000   0.3190
  18.000   0.9315   0.20442   0.20085  -0.0895  0.0353  1.0000  -2.7607   0.0000   0.0000   0.0000   0.3225
  18.250   0.9305   0.21052   0.20697  -0.0927  0.0348  1.0000  -2.6465   0.0000   0.0000   0.0000   0.3258
  18.500   0.9299   0.21633   0.21277  -0.0959  0.0339  1.0000  -2.5362   0.0000   0.0000   0.0000   0.3291
  18.750   0.9309   0.22148   0.21792  -0.0988  0.0330  1.0000  -2.4486   0.0000   0.0000   0.0000   0.3318
  19.000   0.9337   0.22599   0.22244  -0.1014  0.0315  1.0000  -2.3866   0.0000   0.0000   0.0000   0.3338
  19.250   0.9395   0.22931   0.22575  -0.1034  0.0295  1.0000  -2.3880   0.0000   0.0000   0.0000   0.3348
  19.500   0.9518   0.23004   0.22650  -0.1043  0.0275  1.0000  -2.5480   0.0000   0.0000   0.0000   0.3335
  20.500   0.9650   0.24713   0.24351  -0.1141  0.0204  1.0000  -2.3196   0.0000   0.0000   0.0000   0.3406
  20.750   0.9688   0.25143   0.24787  -0.1164  0.0193  1.0000  -2.2532   0.0000   0.0000   0.0000   0.3422
  21.000   0.9740   0.25506   0.25150  -0.1185  0.0178  1.0000  -2.2388   0.0000   0.0000   0.0000   0.3432
  21.250   0.9803   0.25813   0.25457  -0.1204  0.0165  1.0000  -2.2625   0.0000   0.0000   0.0000   0.3439
  21.500   0.9874   0.26068   0.25712  -0.1221  0.0155  1.0000  -2.3219   0.0000   0.0000   0.0000   0.3441
  21.750   0.9959   0.26249   0.25893  -0.1236  0.0146  1.0000  -2.4323   0.0000   0.0000   0.0000   0.3438
  22.000   1.0039   0.26434   0.26078  -0.1251  0.0139  1.0000  -2.5415   0.0000   0.0000   0.0000   0.3436
  22.250   1.0103   0.26695   0.26338  -0.1269  0.0134  1.0000  -2.5992   0.0000   0.0000   0.0000   0.3440
  22.500   1.0147   0.27102   0.26745  -0.1289  0.0133  1.0000  -2.5508   0.0000   0.0000   0.0000   0.3450
  23.000   1.0196   0.29000   0.28640  -0.1331  0.0246  1.0000  -1.9462   0.0000   0.0000   0.0000   0.3485
  23.250   1.0255   0.29379   0.29019  -0.1349  0.0246  1.0000  -1.9332   0.0000   0.0000   0.0000   0.3490
  23.500   1.0312   0.29740   0.29379  -0.1369  0.0246  1.0000  -1.9201   0.0000   0.0000   0.0000   0.3497
  23.750   1.0369   0.30086   0.29726  -0.1388  0.0246  1.0000  -1.9074   0.0000   0.0000   0.0000   0.3503
  24.000   1.0422   0.30416   0.30056  -0.1407  0.0246  1.0000  -1.8929   0.0000   0.0000   0.0000   0.3509
  24.250   1.0471   0.30724   0.30363  -0.1428  0.0245  1.0000  -1.8743   0.0000   0.0000   0.0000   0.3517
  24.500   1.0519   0.31016   0.30654  -0.1448  0.0245  1.0000  -1.8552   0.0000   0.0000   0.0000   0.3525
  24.750   1.0566   0.31291   0.30929  -0.1469  0.0244  1.0000  -1.8354   0.0000   0.0000   0.0000   0.3533
  25.000   1.0611   0.31548   0.31186  -0.1490  0.0243  1.0000  -1.8144   0.0000   0.0000   0.0000   0.3541


