xflr5 v6.61

 Calculated polar for: GAW-1 15%

 1 1 Reynolds number fixed          Mach number fixed         

 xtrf =   1.000 (top)        1.000 (bottom)
 Mach =   0.058     Re =     0.197 e 6     Ncrit =   9.000

  alpha     CL        CD       CDp       Cm    Top Xtr Bot Xtr   Cpmin    Chinge    XCp    
 ------- -------- --------- --------- -------- ------- ------- -------- --------- ---------
  -7.750  -0.4995   0.03065   0.02361  -0.0824  0.9263  0.0403  -3.0438   0.0000   0.0000   0.0000   0.0727
  -7.500  -0.4665   0.02867   0.02132  -0.0837  0.9251  0.0394  -2.9712   0.0000   0.0000   0.0000   0.0579
  -7.000  -0.4606   0.02725   0.01968  -0.0753  0.9104  0.0391  -2.8984   0.0000   0.0000   0.0000   0.0747
  -6.750  -0.4309   0.02588   0.01821  -0.0758  0.9079  0.0393  -2.8143   0.0000   0.0000   0.0000   0.0620
  -6.500  -0.4005   0.02464   0.01691  -0.0765  0.9058  0.0399  -2.7232   0.0000   0.0000   0.0000   0.0467
  -6.250  -0.3702   0.02362   0.01588  -0.0773  0.9039  0.0411  -2.6235   0.0000   0.0000   0.0000   0.0286
  -6.000  -0.3386   0.02278   0.01503  -0.0784  0.9024  0.0430  -2.5192   0.0000   0.0000   0.0000   0.0055
  -5.750  -0.3054   0.02204   0.01427  -0.0797  0.9011  0.0464  -2.4202   0.0000   0.0000   0.0000  -0.0248
  -5.250  -0.3120   0.02222   0.01439  -0.0692  0.8858  0.0500  -2.3468   0.0000   0.0000   0.0000   0.0160
  -5.000  -0.2895   0.02076   0.01293  -0.0689  0.8827  0.0636  -2.3213   0.0000   0.0000   0.0000  -0.0007
  -4.750  -0.2595   0.01978   0.01202  -0.0700  0.8806  0.0938  -2.2313   0.0000   0.0000   0.0000  -0.0329
  -4.500  -0.2315   0.01837   0.01130  -0.0716  0.8788  0.2126  -2.1174   0.0000   0.0000   0.0000  -0.0729
  -4.250  -0.2007   0.01691   0.01082  -0.0739  0.8775  0.4078  -1.9723   0.0000   0.0000   0.0000  -0.1331
  -4.000  -0.1690   0.01660   0.01134  -0.0744  0.8763  0.5819  -1.8164   0.0000   0.0000   0.0000  -0.2066
  -3.750  -0.1367   0.01698   0.01173  -0.0748  0.8741  0.6291  -1.6622   0.0000   0.0000   0.0000  -0.3159
  -3.250  -0.1373   0.01805   0.01280  -0.0643  0.8580  0.6609  -1.5250   0.0000   0.0000   0.0000  -0.2348
  -3.000  -0.1077   0.01859   0.01334  -0.0638  0.8559  0.6833  -1.3811   0.0000   0.0000   0.0000  -0.3609
  -2.750  -0.0741   0.01905   0.01373  -0.0642  0.8543  0.7017  -1.2326   0.0000   0.0000   0.0000  -0.6408
  -2.500  -0.0435   0.01951   0.01417  -0.0636  0.8527  0.7103  -1.0953   0.0000   0.0000   0.0000  -1.2489
  -2.250  -0.0063   0.01985   0.01442  -0.0650  0.8515  0.7240  -0.9464   0.0000   0.0000   0.0000  -10.3534
  -2.000   0.0248   0.02037   0.01498  -0.0642  0.8503  0.7321  -0.8135   0.0000   0.0000   0.0000   2.8970
  -1.500   0.0124   0.02149   0.01609  -0.0520  0.8315  0.7520  -0.7217   0.0000   0.0000   0.0000   4.5396
  -1.250   0.0360   0.02197   0.01662  -0.0495  0.8293  0.7610  -0.6310   0.0000   0.0000   0.0000   1.6494
  -1.000   0.0726   0.02214   0.01675  -0.0505  0.8279  0.7711  -0.5312   0.0000   0.0000   0.0000   0.9537
  -0.750   0.1168   0.02196   0.01651  -0.0533  0.8267  0.7768  -0.4470   0.0000   0.0000   0.0000   0.7098
  -0.500   0.1577   0.02187   0.01642  -0.0548  0.8255  0.7806  -0.4705   0.0000   0.0000   0.0000   0.5987
   0.250   0.2015   0.02231   0.01682  -0.0479  0.8045  0.8006  -0.5246   0.0000   0.0000   0.0000   0.4862
   0.500   0.2357   0.02208   0.01662  -0.0482  0.8029  0.8046  -0.5647   0.0000   0.0000   0.0000   0.4523
   0.750   0.2820   0.02174   0.01628  -0.0508  0.8017  0.8077  -0.6141   0.0000   0.0000   0.0000   0.4277
   1.000   0.3241   0.02133   0.01587  -0.0527  0.7985  0.8108  -0.6761   0.0000   0.0000   0.0000   0.4096
   1.500   0.3717   0.02078   0.01532  -0.0510  0.7816  0.8201  -0.7731   0.0000   0.0000   0.0000   0.3833
   1.750   0.4411   0.01946   0.01395  -0.0572  0.7791  0.8215  -0.8718   0.0000   0.0000   0.0000   0.3756
   2.000   0.5004   0.01855   0.01299  -0.0621  0.7760  0.8240  -0.9613   0.0000   0.0000   0.0000   0.3699
   2.250   0.5021   0.01860   0.01311  -0.0574  0.7644  0.8282  -0.9932   0.0000   0.0000   0.0000   0.3597
   2.500   0.5367   0.01809   0.01262  -0.0580  0.7583  0.8306  -1.0662   0.0000   0.0000   0.0000   0.3532
   2.750   0.5871   0.01717   0.01166  -0.0611  0.7525  0.8322  -1.1607   0.0000   0.0000   0.0000   0.3490
   3.000   0.6084   0.01679   0.01132  -0.0594  0.7402  0.8350  -1.2194   0.0000   0.0000   0.0000   0.3424
   3.250   0.6457   0.01612   0.01063  -0.0605  0.7296  0.8373  -1.2997   0.0000   0.0000   0.0000   0.3381
   3.500   0.6750   0.01579   0.01036  -0.0605  0.7196  0.8401  -1.3699   0.0000   0.0000   0.0000   0.3338
   3.750   0.7012   0.01546   0.01006  -0.0600  0.7067  0.8431  -1.4368   0.0000   0.0000   0.0000   0.3295
   4.000   0.7308   0.01514   0.00975  -0.0601  0.6931  0.8460  -1.5089   0.0000   0.0000   0.0000   0.3259
   4.250   0.7624   0.01479   0.00937  -0.0606  0.6757  0.8485  -1.5847   0.0000   0.0000   0.0000   0.3229
   4.500   0.7820   0.01454   0.00914  -0.0589  0.6523  0.8514  -1.6448   0.0000   0.0000   0.0000   0.3184
   4.750   0.7968   0.01428   0.00884  -0.0558  0.6225  0.8552  -1.6994   0.0000   0.0000   0.0000   0.3128
   5.000   0.8104   0.01416   0.00856  -0.0525  0.5733  0.8595  -1.7604   0.0000   0.0000   0.0000   0.3073
   5.250   0.8195   0.01440   0.00841  -0.0488  0.5042  0.8635  -1.8325   0.0000   0.0000   0.0000   0.3018
   5.500   0.8198   0.01486   0.00853  -0.0440  0.4414  0.8679  -1.8867   0.0000   0.0000   0.0000   0.2955
   5.750   0.8212   0.01549   0.00891  -0.0397  0.3850  0.8723  -1.9366   0.0000   0.0000   0.0000   0.2898
   6.000   0.8215   0.01620   0.00935  -0.0354  0.3349  0.8765  -1.9893   0.0000   0.0000   0.0000   0.2843
   6.250   0.8186   0.01686   0.00980  -0.0304  0.2948  0.8814  -2.0360   0.0000   0.0000   0.0000   0.2780
   6.500   0.8205   0.01758   0.01032  -0.0266  0.2594  0.8867  -2.0921   0.0000   0.0000   0.0000   0.2729
   6.750   0.8301   0.01821   0.01085  -0.0241  0.2314  0.8920  -2.1634   0.0000   0.0000   0.0000   0.2692
   7.000   0.8355   0.01919   0.01160  -0.0213  0.2016  0.8975  -2.2240   0.0000   0.0000   0.0000   0.2653
   7.250   0.8487   0.01969   0.01209  -0.0194  0.1868  0.9028  -2.3040   0.0000   0.0000   0.0000   0.2624
   7.500   0.8512   0.02047   0.01270  -0.0158  0.1746  0.9102  -2.3613   0.0000   0.0000   0.0000   0.2578
   7.750   0.8646   0.02096   0.01324  -0.0138  0.1650  0.9178  -2.4417   0.0000   0.0000   0.0000   0.2549
   8.000   0.8768   0.02177   0.01393  -0.0122  0.1555  0.9249  -2.5204   0.0000   0.0000   0.0000   0.2525
   8.250   0.8888   0.02242   0.01454  -0.0100  0.1474  0.9338  -2.5973   0.0000   0.0000   0.0000   0.2495
   8.500   0.9035   0.02282   0.01503  -0.0083  0.1416  0.9446  -2.6839   0.0000   0.0000   0.0000   0.2472
   8.750   0.9207   0.02337   0.01561  -0.0074  0.1355  0.9587  -2.7770   0.0000   0.0000   0.0000   0.2457
   9.250   0.9724   0.02502   0.01719  -0.0090  0.1222  1.0000  -3.0006   0.0000   0.0000   0.0000   0.2463
   9.500   0.9979   0.02573   0.01809  -0.0098  0.1179  1.0000  -3.1187   0.0000   0.0000   0.0000   0.2465
   9.750   1.0227   0.02652   0.01892  -0.0104  0.1132  1.0000  -3.2318   0.0000   0.0000   0.0000   0.2466
  10.000   1.0454   0.02738   0.01979  -0.0109  0.1088  1.0000  -3.3417   0.0000   0.0000   0.0000   0.2465
  10.250   1.0700   0.02853   0.02087  -0.0115  0.1033  1.0000  -3.4528   0.0000   0.0000   0.0000   0.2464
  10.500   1.1003   0.02984   0.02224  -0.0125  0.0984  1.0000  -3.5690   0.0000   0.0000   0.0000   0.2468
  10.750   1.1187   0.03066   0.02317  -0.0123  0.0956  1.0000  -3.6835   0.0000   0.0000   0.0000   0.2461
  11.000   1.1365   0.03159   0.02420  -0.0120  0.0917  1.0000  -3.8070   0.0000   0.0000   0.0000   0.2452
  11.250   1.1522   0.03260   0.02526  -0.0115  0.0875  1.0000  -3.9260   0.0000   0.0000   0.0000   0.2443
  11.500   1.1649   0.03366   0.02633  -0.0108  0.0835  1.0000  -4.0395   0.0000   0.0000   0.0000   0.2431
  11.750   1.1892   0.03651   0.02921  -0.0113  0.0746  1.0000  -4.1544   0.0000   0.0000   0.0000   0.2431
  12.000   1.1986   0.03727   0.03005  -0.0102  0.0732  1.0000  -4.2611   0.0000   0.0000   0.0000   0.2416
  12.250   1.2080   0.03827   0.03115  -0.0091  0.0710  1.0000  -4.3643   0.0000   0.0000   0.0000   0.2402
  12.500   1.2167   0.03957   0.03266  -0.0080  0.0681  1.0000  -4.4625   0.0000   0.0000   0.0000   0.2388
  12.750   1.2258   0.04108   0.03429  -0.0071  0.0652  1.0000  -4.5566   0.0000   0.0000   0.0000   0.2375
  13.000   1.2344   0.04280   0.03613  -0.0061  0.0629  1.0000  -4.6447   0.0000   0.0000   0.0000   0.2363
  13.250   1.2421   0.04463   0.03807  -0.0053  0.0610  1.0000  -4.7304   0.0000   0.0000   0.0000   0.2352
  13.500   1.2482   0.04658   0.04014  -0.0044  0.0594  1.0000  -4.8111   0.0000   0.0000   0.0000   0.2340
  13.750   1.2529   0.04867   0.04235  -0.0036  0.0582  1.0000  -4.8870   0.0000   0.0000   0.0000   0.2329
  14.000   1.2558   0.05097   0.04478  -0.0029  0.0571  1.0000  -4.9553   0.0000   0.0000   0.0000   0.2318
  14.250   1.2569   0.05354   0.04749  -0.0022  0.0561  1.0000  -5.0142   0.0000   0.0000   0.0000   0.2308
  14.500   1.2550   0.05649   0.05060  -0.0017  0.0552  1.0000  -5.0584   0.0000   0.0000   0.0000   0.2299
  14.750   1.2500   0.05989   0.05417  -0.0014  0.0545  1.0000  -5.0860   0.0000   0.0000   0.0000   0.2292
  15.000   1.2408   0.06385   0.05832  -0.0013  0.0538  1.0000  -5.0921   0.0000   0.0000   0.0000   0.2286
  15.250   1.2270   0.06844   0.06313  -0.0017  0.0533  1.0000  -5.0747   0.0000   0.0000   0.0000   0.2284
  15.500   1.2089   0.07375   0.06867  -0.0027  0.0529  1.0000  -5.0341   0.0000   0.0000   0.0000   0.2287
  15.750   1.1867   0.07988   0.07503  -0.0044  0.0527  1.0000  -4.9694   0.0000   0.0000   0.0000   0.2296
  16.000   1.1601   0.08700   0.08238  -0.0072  0.0526  1.0000  -4.8773   0.0000   0.0000   0.0000   0.2315
  16.250   1.1294   0.09537   0.09099  -0.0113  0.0526  1.0000  -4.7519   0.0000   0.0000   0.0000   0.2347
  16.500   1.0873   0.10666   0.10255  -0.0178  0.0530  1.0000  -4.5440   0.0000   0.0000   0.0000   0.2406
  17.500   0.8267   0.20701   0.20333  -0.0686  0.0743  1.0000  -1.8429   0.0000   0.0000   0.0000   0.3097
  17.750   0.8308   0.21198   0.20831  -0.0711  0.0742  1.0000  -1.7933   0.0000   0.0000   0.0000   0.3119
  18.000   0.8352   0.21661   0.21294  -0.0735  0.0741  1.0000  -1.7517   0.0000   0.0000   0.0000   0.3140
  18.250   0.8399   0.22090   0.21722  -0.0758  0.0739  1.0000  -1.7161   0.0000   0.0000   0.0000   0.3159
  18.500   0.8445   0.22475   0.22108  -0.0782  0.0737  1.0000  -1.6846   0.0000   0.0000   0.0000   0.3178
  18.750   0.8477   0.22789   0.22421  -0.0807  0.0732  1.0000  -1.6479   0.0000   0.0000   0.0000   0.3200
  19.000   0.8402   0.22860   0.22490  -0.0847  0.0702  1.0000  -1.5512   0.0000   0.0000   0.0000   0.3252
  19.250   0.8432   0.23164   0.22794  -0.0873  0.0666  1.0000  -1.5204   0.0000   0.0000   0.0000   0.3275
  19.500   0.8490   0.23489   0.23119  -0.0894  0.0643  1.0000  -1.5296   0.0000   0.0000   0.0000   0.3288
  19.750   0.8555   0.23808   0.23438  -0.0914  0.0625  1.0000  -1.5449   0.0000   0.0000   0.0000   0.3298
  20.000   0.8623   0.24120   0.23750  -0.0933  0.0610  1.0000  -1.5637   0.0000   0.0000   0.0000   0.3306
  20.250   0.8694   0.24426   0.24056  -0.0951  0.0597  1.0000  -1.5853   0.0000   0.0000   0.0000   0.3313
  20.500   0.8766   0.24725   0.24356  -0.0968  0.0585  1.0000  -1.6095   0.0000   0.0000   0.0000   0.3319
  20.750   0.8841   0.25019   0.24651  -0.0986  0.0575  1.0000  -1.6361   0.0000   0.0000   0.0000   0.3324
  21.000   0.8918   0.25303   0.24935  -0.1002  0.0566  1.0000  -1.6655   0.0000   0.0000   0.0000   0.3328
  21.250   0.8998   0.25580   0.25219  -0.1018  0.0558  1.0000  -1.6919   0.0000   0.0000   0.0000   0.3330
  21.500   0.9081   0.25850   0.25490  -0.1034  0.0550  1.0000  -1.7264   0.0000   0.0000   0.0000   0.3331
  21.750   0.9173   0.26116   0.25757  -0.1047  0.0542  1.0000  -1.7722   0.0000   0.0000   0.0000   0.3328
  22.000   0.9280   0.26397   0.26040  -0.1058  0.0533  1.0000  -1.8337   0.0000   0.0000   0.0000   0.3321
  22.250   0.9410   0.26748   0.26393  -0.1066  0.0523  1.0000  -1.9143   0.0000   0.0000   0.0000   0.3308
  22.500   0.9562   0.27337   0.26986  -0.1073  0.0513  1.0000  -2.0039   0.0000   0.0000   0.0000   0.3291
  22.750   0.9537   0.28732   0.28378  -0.1109  0.0497  1.0000  -1.8750   0.0000   0.0000   0.0000   0.3330
  23.000   0.9590   0.29006   0.28654  -0.1129  0.0496  1.0000  -1.8717   0.0000   0.0000   0.0000   0.3338
  23.250   0.9640   0.29249   0.28898  -0.1149  0.0496  1.0000  -1.8652   0.0000   0.0000   0.0000   0.3347
  23.500   0.9688   0.29452   0.29101  -0.1169  0.0494  1.0000  -1.8551   0.0000   0.0000   0.0000   0.3356
  23.750   0.9731   0.29579   0.29229  -0.1189  0.0492  1.0000  -1.8406   0.0000   0.0000   0.0000   0.3366
  24.000   0.9758   0.29527   0.29177  -0.1211  0.0487  1.0000  -1.8475   0.0000   0.0000   0.0000   0.3378
  24.250   0.9722   0.29135   0.28782  -0.1244  0.0464  1.0000  -1.7908   0.0000   0.0000   0.0000   0.3410
  24.500   0.9763   0.29321   0.28968  -0.1267  0.0438  1.0000  -1.7925   0.0000   0.0000   0.0000   0.3423
  24.750   0.9824   0.29569   0.29217  -0.1286  0.0421  1.0000  -1.8268   0.0000   0.0000   0.0000   0.3427
  25.000   0.9891   0.29815   0.29464  -0.1303  0.0409  1.0000  -1.8737   0.0000   0.0000   0.0000   0.3429


