xflr5 v6.61

 Calculated polar for: GAW-1 17%

 1 1 Reynolds number fixed          Mach number fixed         

 xtrf =   1.000 (top)        1.000 (bottom)
 Mach =   0.058     Re =     0.197 e 6     Ncrit =   9.000

  alpha     CL        CD       CDp       Cm    Top Xtr Bot Xtr   Cpmin    Chinge    XCp    
 ------- -------- --------- --------- -------- ------- ------- -------- --------- ---------
  -8.000  -0.4259   0.02718   0.01953  -0.0978  0.9035  0.0404  -3.0913   0.0000   0.0000   0.0000   0.0021
  -7.750  -0.3946   0.02622   0.01857  -0.0992  0.9022  0.0423  -2.9750   0.0000   0.0000   0.0000  -0.0201
  -7.500  -0.3621   0.02539   0.01773  -0.1007  0.9008  0.0452  -2.8621   0.0000   0.0000   0.0000  -0.0476
  -7.000  -0.4012   0.02584   0.01811  -0.0850  0.8824  0.0466  -2.8482   0.0000   0.0000   0.0000   0.0214
  -6.750  -0.3746   0.02542   0.01765  -0.0852  0.8803  0.0497  -2.7424   0.0000   0.0000   0.0000   0.0055
  -6.500  -0.3567   0.02395   0.01612  -0.0843  0.8782  0.0568  -2.7057   0.0000   0.0000   0.0000  -0.0034
  -6.250  -0.3310   0.02312   0.01532  -0.0847  0.8767  0.0648  -2.6039   0.0000   0.0000   0.0000  -0.0235
  -5.750  -0.3678   0.02378   0.01592  -0.0696  0.8597  0.0692  -2.5772   0.0000   0.0000   0.0000   0.0460
  -5.500  -0.3490   0.02296   0.01520  -0.0688  0.8570  0.0897  -2.4996   0.0000   0.0000   0.0000   0.0380
  -5.250  -0.3250   0.02207   0.01458  -0.0691  0.8551  0.1382  -2.3907   0.0000   0.0000   0.0000   0.0222
  -5.000  -0.2967   0.02077   0.01389  -0.0708  0.8535  0.2341  -2.2555   0.0000   0.0000   0.0000  -0.0043
  -4.750  -0.2634   0.01944   0.01329  -0.0733  0.8521  0.3730  -2.1034   0.0000   0.0000   0.0000  -0.0448
  -4.500  -0.2268   0.01870   0.01316  -0.0753  0.8510  0.5042  -1.9380   0.0000   0.0000   0.0000  -0.0999
  -4.250  -0.1932   0.01897   0.01368  -0.0758  0.8494  0.5787  -1.7832   0.0000   0.0000   0.0000  -0.1618
  -3.750  -0.2228   0.02057   0.01533  -0.0615  0.8327  0.6121  -1.7226   0.0000   0.0000   0.0000  -0.0416
  -3.500  -0.1924   0.02102   0.01575  -0.0615  0.8307  0.6395  -1.5802   0.0000   0.0000   0.0000  -0.0860
  -3.250  -0.1614   0.02160   0.01633  -0.0611  0.8290  0.6605  -1.4379   0.0000   0.0000   0.0000  -0.1471
  -3.000  -0.1263   0.02203   0.01668  -0.0619  0.8277  0.6774  -1.2911   0.0000   0.0000   0.0000  -0.2611
  -2.750  -0.0941   0.02254   0.01720  -0.0616  0.8264  0.6849  -1.1538   0.0000   0.0000   0.0000  -0.4308
  -2.500  -0.0562   0.02294   0.01749  -0.0629  0.8253  0.6975  -1.0114   0.0000   0.0000   0.0000  -0.9070
  -1.500  -0.0151   0.02524   0.01980  -0.0488  0.8030  0.7297  -0.7575   0.0000   0.0000   0.0000  -3.0733
  -1.250   0.0170   0.02573   0.02032  -0.0474  0.8016  0.7386  -0.6606   0.0000   0.0000   0.0000   3.0974
  -1.000   0.0617   0.02579   0.02031  -0.0500  0.8004  0.7507  -0.5530   0.0000   0.0000   0.0000   1.0738
  -0.500   0.0439   0.02696   0.02153  -0.0372  0.7806  0.7602  -0.5200   0.0000   0.0000   0.0000   1.1099
  -0.250   0.0836   0.02674   0.02128  -0.0386  0.7788  0.7650  -0.4922   0.0000   0.0000   0.0000   0.7145
   0.000   0.1288   0.02644   0.02093  -0.0414  0.7775  0.7714  -0.5231   0.0000   0.0000   0.0000   0.5711
   0.250   0.1688   0.02622   0.02068  -0.0432  0.7763  0.7771  -0.5560   0.0000   0.0000   0.0000   0.5043
   0.500   0.2027   0.02611   0.02058  -0.0432  0.7752  0.7810  -0.5860   0.0000   0.0000   0.0000   0.4603
   1.000   0.2034   0.02692   0.02142  -0.0344  0.7546  0.7924  -0.6129   0.0000   0.0000   0.0000   0.4142
   1.250   0.2565   0.02612   0.02059  -0.0382  0.7534  0.7958  -0.6687   0.0000   0.0000   0.0000   0.3938
   1.500   0.3117   0.02537   0.01980  -0.0426  0.7524  0.7995  -0.7267   0.0000   0.0000   0.0000   0.3816
   1.750   0.3630   0.02434   0.01877  -0.0455  0.7517  0.8021  -0.7963   0.0000   0.0000   0.0000   0.3700
   2.000   0.4322   0.02301   0.01742  -0.0514  0.7511  0.8034  -0.8948   0.0000   0.0000   0.0000   0.3634
   2.250   0.5040   0.02173   0.01611  -0.0580  0.7499  0.8044  -0.9981   0.0000   0.0000   0.0000   0.3595
   2.500   0.4473   0.02267   0.01713  -0.0438  0.7314  0.8098  -0.9624   0.0000   0.0000   0.0000   0.3414
   2.750   0.5117   0.02146   0.01592  -0.0489  0.7301  0.8120  -1.0596   0.0000   0.0000   0.0000   0.3391
   3.000   0.5754   0.02051   0.01497  -0.0545  0.7282  0.8141  -1.1572   0.0000   0.0000   0.0000   0.3381
   3.250   0.6365   0.01964   0.01407  -0.0599  0.7255  0.8155  -1.2599   0.0000   0.0000   0.0000   0.3373
   3.500   0.6232   0.01980   0.01430  -0.0531  0.7113  0.8196  -1.2743   0.0000   0.0000   0.0000   0.3280
   3.750   0.6933   0.01838   0.01285  -0.0595  0.7036  0.8207  -1.3973   0.0000   0.0000   0.0000   0.3285
   4.000   0.7170   0.01799   0.01248  -0.0589  0.6919  0.8232  -1.4608   0.0000   0.0000   0.0000   0.3244
   4.250   0.7500   0.01750   0.01199  -0.0597  0.6804  0.8252  -1.5371   0.0000   0.0000   0.0000   0.3217
   4.500   0.7699   0.01703   0.01155  -0.0578  0.6686  0.8274  -1.5975   0.0000   0.0000   0.0000   0.3169
   4.750   0.7824   0.01665   0.01119  -0.0546  0.6540  0.8299  -1.6485   0.0000   0.0000   0.0000   0.3112
   5.000   0.7906   0.01646   0.01104  -0.0508  0.6369  0.8328  -1.6936   0.0000   0.0000   0.0000   0.3053
   5.250   0.8082   0.01623   0.01079  -0.0487  0.6159  0.8356  -1.7518   0.0000   0.0000   0.0000   0.3010
   5.500   0.8235   0.01611   0.01061  -0.0463  0.5869  0.8391  -1.8072   0.0000   0.0000   0.0000   0.2966
   5.750   0.8449   0.01604   0.01036  -0.0448  0.5456  0.8430  -1.8714   0.0000   0.0000   0.0000   0.2931
   6.000   0.8557   0.01639   0.01043  -0.0421  0.4937  0.8467  -1.9205   0.0000   0.0000   0.0000   0.2889
   6.250   0.8607   0.01706   0.01080  -0.0388  0.4424  0.8495  -1.9611   0.0000   0.0000   0.0000   0.2844
   6.500   0.8576   0.01774   0.01121  -0.0341  0.3987  0.8526  -1.9902   0.0000   0.0000   0.0000   0.2787
   6.750   0.8562   0.01845   0.01173  -0.0298  0.3588  0.8560  -2.0213   0.0000   0.0000   0.0000   0.2733
   7.000   0.8574   0.01923   0.01234  -0.0262  0.3233  0.8596  -2.0553   0.0000   0.0000   0.0000   0.2686
   7.250   0.8593   0.02012   0.01305  -0.0229  0.2913  0.8635  -2.0895   0.0000   0.0000   0.0000   0.2644
   7.500   0.8642   0.02105   0.01380  -0.0204  0.2629  0.8674  -2.1279   0.0000   0.0000   0.0000   0.2608
   7.750   0.8754   0.02185   0.01451  -0.0187  0.2398  0.8710  -2.1841   0.0000   0.0000   0.0000   0.2583
   8.000   0.8864   0.02276   0.01528  -0.0173  0.2195  0.8744  -2.2491   0.0000   0.0000   0.0000   0.2560
   8.250   0.8922   0.02370   0.01609  -0.0148  0.1979  0.8783  -2.3083   0.0000   0.0000   0.0000   0.2527
   8.500   0.9036   0.02426   0.01669  -0.0129  0.1877  0.8825  -2.3828   0.0000   0.0000   0.0000   0.2500
   8.750   0.9102   0.02519   0.01747  -0.0106  0.1777  0.8877  -2.4473   0.0000   0.0000   0.0000   0.2470
   9.000   0.9234   0.02596   0.01824  -0.0092  0.1686  0.8931  -2.5242   0.0000   0.0000   0.0000   0.2450
   9.250   0.9373   0.02679   0.01903  -0.0081  0.1605  0.8981  -2.6040   0.0000   0.0000   0.0000   0.2433
   9.500   0.9499   0.02774   0.01984  -0.0068  0.1522  0.9028  -2.6801   0.0000   0.0000   0.0000   0.2414
   9.750   0.9661   0.02835   0.02049  -0.0055  0.1469  0.9084  -2.7642   0.0000   0.0000   0.0000   0.2396
  10.000   0.9821   0.02895   0.02127  -0.0043  0.1426  0.9147  -2.8541   0.0000   0.0000   0.0000   0.2380
  10.250   0.9984   0.02964   0.02199  -0.0034  0.1379  0.9214  -2.9432   0.0000   0.0000   0.0000   0.2367
  10.500   1.0128   0.03033   0.02269  -0.0023  0.1336  0.9291  -3.0290   0.0000   0.0000   0.0000   0.2352
  10.750   1.0271   0.03104   0.02337  -0.0009  0.1293  0.9390  -3.1140   0.0000   0.0000   0.0000   0.2334
  11.000   1.0550   0.03188   0.02419  -0.0010  0.1240  0.9485  -3.2252   0.0000   0.0000   0.0000   0.2333
  11.250   1.0715   0.03253   0.02499  -0.0008  0.1217  0.9713  -3.3173   0.0000   0.0000   0.0000   0.2327
  11.500   1.0911   0.03338   0.02595  -0.0014  0.1182  1.0000  -3.4166   0.0000   0.0000   0.0000   0.2328
  11.750   1.1117   0.03441   0.02703  -0.0020  0.1144  1.0000  -3.5190   0.0000   0.0000   0.0000   0.2330
  12.000   1.1325   0.03549   0.02814  -0.0026  0.1111  1.0000  -3.6219   0.0000   0.0000   0.0000   0.2331
  12.250   1.1519   0.03664   0.02931  -0.0031  0.1080  1.0000  -3.7226   0.0000   0.0000   0.0000   0.2330
  12.500   1.1729   0.03791   0.03056  -0.0036  0.1044  1.0000  -3.8261   0.0000   0.0000   0.0000   0.2330
  12.750   1.2062   0.03977   0.03247  -0.0050  0.0993  1.0000  -3.9444   0.0000   0.0000   0.0000   0.2338
  13.000   1.2200   0.04094   0.03383  -0.0049  0.0980  1.0000  -4.0309   0.0000   0.0000   0.0000   0.2332
  13.250   1.2329   0.04224   0.03526  -0.0048  0.0962  1.0000  -4.1143   0.0000   0.0000   0.0000   0.2326
  13.500   1.2436   0.04373   0.03687  -0.0044  0.0940  1.0000  -4.1903   0.0000   0.0000   0.0000   0.2318
  13.750   1.2537   0.04529   0.03855  -0.0041  0.0914  1.0000  -4.2638   0.0000   0.0000   0.0000   0.2311
  14.000   1.2623   0.04695   0.04031  -0.0037  0.0888  1.0000  -4.3337   0.0000   0.0000   0.0000   0.2303
  14.250   1.2700   0.04866   0.04209  -0.0033  0.0861  1.0000  -4.4020   0.0000   0.0000   0.0000   0.2294
  14.500   1.2769   0.05043   0.04391  -0.0030  0.0836  1.0000  -4.4845   0.0000   0.0000   0.0000   0.2286
  14.750   1.2823   0.05243   0.04595  -0.0027  0.0811  1.0000  -4.5672   0.0000   0.0000   0.0000   0.2278
  15.000   1.2875   0.05566   0.04927  -0.0026  0.0767  1.0000  -4.6287   0.0000   0.0000   0.0000   0.2273
  15.250   1.2790   0.06007   0.05395  -0.0022  0.0741  1.0000  -4.6340   0.0000   0.0000   0.0000   0.2266
  15.500   1.2792   0.06226   0.05627  -0.0021  0.0733  1.0000  -4.6980   0.0000   0.0000   0.0000   0.2259
  15.750   1.2775   0.06484   0.05898  -0.0021  0.0721  1.0000  -4.7521   0.0000   0.0000   0.0000   0.2253
  16.000   1.2738   0.06785   0.06214  -0.0023  0.0706  1.0000  -4.7953   0.0000   0.0000   0.0000   0.2248
  16.250   1.2674   0.07138   0.06583  -0.0027  0.0689  1.0000  -4.8239   0.0000   0.0000   0.0000   0.2246
  16.500   1.2571   0.07559   0.07021  -0.0036  0.0674  1.0000  -4.8323   0.0000   0.0000   0.0000   0.2247
  16.750   1.2440   0.08040   0.07521  -0.0048  0.0659  1.0000  -4.8249   0.0000   0.0000   0.0000   0.2251
  17.000   1.2267   0.08608   0.08108  -0.0067  0.0647  1.0000  -4.7939   0.0000   0.0000   0.0000   0.2261
  17.250   1.2066   0.09252   0.08774  -0.0093  0.0636  1.0000  -4.7426   0.0000   0.0000   0.0000   0.2277
  17.500   1.1732   0.10151   0.09699  -0.0136  0.0630  1.0000  -4.6187   0.0000   0.0000   0.0000   0.2309
  19.750   0.8570   0.23214   0.22841  -0.0793  0.0744  1.0000  -1.9114   0.0000   0.0000   0.0000   0.3118
  20.000   0.8607   0.23669   0.23296  -0.0817  0.0743  1.0000  -1.8599   0.0000   0.0000   0.0000   0.3138
  20.250   0.8646   0.24110   0.23738  -0.0841  0.0741  1.0000  -1.8069   0.0000   0.0000   0.0000   0.3156
  20.500   0.8688   0.24521   0.24148  -0.0864  0.0740  1.0000  -1.7610   0.0000   0.0000   0.0000   0.3174
  20.750   0.8732   0.24893   0.24527  -0.0886  0.0738  1.0000  -1.7219   0.0000   0.0000   0.0000   0.3190
  21.000   0.8770   0.25206   0.24840  -0.0909  0.0735  1.0000  -1.6855   0.0000   0.0000   0.0000   0.3206
  21.250   0.8763   0.25367   0.24999  -0.0936  0.0728  1.0000  -1.6299   0.0000   0.0000   0.0000   0.3233
  21.500   0.8705   0.25353   0.24983  -0.0972  0.0684  1.0000  -1.5395   0.0000   0.0000   0.0000   0.3276
  21.750   0.8756   0.25614   0.25244  -0.0994  0.0652  1.0000  -1.5237   0.0000   0.0000   0.0000   0.3289
  22.000   0.8818   0.25876   0.25506  -0.1012  0.0631  1.0000  -1.5197   0.0000   0.0000   0.0000   0.3296
  22.250   0.8884   0.26132   0.25763  -0.1030  0.0614  1.0000  -1.5205   0.0000   0.0000   0.0000   0.3302
  22.500   0.8952   0.26384   0.26015  -0.1048  0.0599  1.0000  -1.5354   0.0000   0.0000   0.0000   0.3307
  22.750   0.9023   0.26632   0.26264  -0.1065  0.0587  1.0000  -1.5592   0.0000   0.0000   0.0000   0.3310
  23.000   0.9094   0.26877   0.26509  -0.1082  0.0577  1.0000  -1.5853   0.0000   0.0000   0.0000   0.3313
  23.250   0.9167   0.27120   0.26753  -0.1098  0.0568  1.0000  -1.6135   0.0000   0.0000   0.0000   0.3315
  23.500   0.9242   0.27363   0.26997  -0.1114  0.0559  1.0000  -1.6439   0.0000   0.0000   0.0000   0.3316
  23.750   0.9319   0.27607   0.27242  -0.1129  0.0552  1.0000  -1.6764   0.0000   0.0000   0.0000   0.3317
  24.000   0.9398   0.27855   0.27490  -0.1145  0.0545  1.0000  -1.7114   0.0000   0.0000   0.0000   0.3316
  24.250   0.9479   0.28109   0.27746  -0.1159  0.0539  1.0000  -1.7489   0.0000   0.0000   0.0000   0.3314
  24.500   0.9565   0.28376   0.28014  -0.1173  0.0533  1.0000  -1.7913   0.0000   0.0000   0.0000   0.3311
  24.750   0.9664   0.28670   0.28310  -0.1185  0.0527  1.0000  -1.8455   0.0000   0.0000   0.0000   0.3304
  25.000   0.9783   0.29050   0.28696  -0.1195  0.0519  1.0000  -1.9171   0.0000   0.0000   0.0000   0.3292


