xflr5 v6.61

 Calculated polar for: GAW-1 12%

 1 1 Reynolds number fixed          Mach number fixed         

 xtrf =   1.000 (top)        1.000 (bottom)
 Mach =   0.058     Re =     0.197 e 6     Ncrit =   9.000

  alpha     CL        CD       CDp       Cm    Top Xtr Bot Xtr   Cpmin    Chinge    XCp    
 ------- -------- --------- --------- -------- ------- ------- -------- --------- ---------
  -7.750  -0.5679   0.05618   0.05234  -0.0542  0.9807  0.0607  -2.4707   0.0000   0.0000   0.0000   0.1478
  -7.500  -0.5506   0.05188   0.04778  -0.0581  0.9765  0.0634  -2.4665   0.0000   0.0000   0.0000   0.1379
  -7.250  -0.5435   0.04849   0.04416  -0.0581  0.9698  0.0655  -2.4773   0.0000   0.0000   0.0000   0.1365
  -7.000  -0.5332   0.04501   0.04039  -0.0581  0.9632  0.0668  -2.4963   0.0000   0.0000   0.0000   0.1346
  -6.750  -0.3655   0.00160  -0.00356  -0.0692  0.9357  0.0416  -2.4957   0.0000   0.0000   0.0000   0.0570
  -6.500  -0.3381   0.00142  -0.00370  -0.0700  0.9324  0.0457  -2.2877   0.0000   0.0000   0.0000   0.0394
  -6.250  -0.3101   0.00110  -0.00415  -0.0708  0.9296  0.0482  -2.1350   0.0000   0.0000   0.0000   0.0183
  -6.000  -0.2839   0.00055  -0.00499  -0.0715  0.9270  0.0468  -2.0613   0.0000   0.0000   0.0000  -0.0050
  -5.750  -0.2616   0.00032  -0.00543  -0.0709  0.9227  0.0454  -1.9835   0.0000   0.0000   0.0000  -0.0242
  -5.500  -0.2470   0.00024  -0.00566  -0.0692  0.9159  0.0448  -1.9124   0.0000   0.0000   0.0000  -0.0331
  -5.250  -0.2240   0.00016  -0.00590  -0.0684  0.9111  0.0445  -1.8186   0.0000   0.0000   0.0000  -0.0582
  -5.000  -0.1968   0.00009  -0.00600  -0.0681  0.9067  0.0451  -1.6877   0.0000   0.0000   0.0000  -0.0988
  -4.750  -0.1689   0.00005  -0.00605  -0.0678  0.9026  0.0467  -1.5598   0.0000   0.0000   0.0000  -0.1541
  -4.500  -0.1456   0.00003  -0.00608  -0.0672  0.8982  0.0492  -1.4888   0.0000   0.0000   0.0000  -0.2138
  -4.250  -0.1280   0.00002  -0.00610  -0.0666  0.8912  0.0590  -1.4818   0.0000   0.0000   0.0000  -0.2722
  -4.000  -0.0963   0.00000  -0.00545  -0.0689  0.8863  0.1887  -1.4387   0.0000   0.0000   0.0000  -0.4665
  -3.750  -0.0573   0.00000  -0.00427  -0.0724  0.8826  0.4724  -1.2656   0.0000   0.0000   0.0000  -1.0120
  -3.500  -0.0317   0.00000  -0.00399  -0.0715  0.8781  0.5757  -1.1249   0.0000   0.0000   0.0000  -2.0033
  -3.000  -0.1224   0.01440   0.00920  -0.0598  0.9065  0.6680  -1.5929   0.0000   0.0000   0.0000  -0.2491
  -2.750  -0.0881   0.01475   0.00948  -0.0603  0.9042  0.7029  -1.4341   0.0000   0.0000   0.0000  -0.4476
  -2.500  -0.0526   0.01520   0.00993  -0.0607  0.9022  0.7286  -1.2663   0.0000   0.0000   0.0000  -0.9246
  -2.250  -0.0153   0.01565   0.01035  -0.0615  0.9007  0.7502  -1.0987   0.0000   0.0000   0.0000  -3.8432
  -2.000  -0.0304   0.01613   0.01090  -0.0531  0.8892  0.7574  -1.0683   0.0000   0.0000   0.0000  -1.5266
  -1.750  -0.0064   0.01650   0.01123  -0.0519  0.8852  0.7719  -0.9406   0.0000   0.0000   0.0000  -7.9676
  -1.500   0.0171   0.01686   0.01163  -0.0499  0.8820  0.7851  -0.8156   0.0000   0.0000   0.0000   3.2043
  -1.250   0.0496   0.01715   0.01187  -0.0502  0.8798  0.8006  -0.6756   0.0000   0.0000   0.0000   1.2728
  -1.000   0.0832   0.01717   0.01189  -0.0504  0.8778  0.8070  -0.5377   0.0000   0.0000   0.0000   0.8607
  -0.750   0.1221   0.01715   0.01184  -0.0521  0.8761  0.8129  -0.3954   0.0000   0.0000   0.0000   0.6785
  -0.250   0.1444   0.01745   0.01212  -0.0461  0.8597  0.8284  -0.3907   0.0000   0.0000   0.0000   0.5695
   0.000   0.1817   0.01730   0.01198  -0.0471  0.8569  0.8341  -0.4308   0.0000   0.0000   0.0000   0.5089
   0.250   0.2216   0.01710   0.01177  -0.0490  0.8543  0.8391  -0.4814   0.0000   0.0000   0.0000   0.4699
   0.500   0.2628   0.01690   0.01156  -0.0512  0.8522  0.8440  -0.5435   0.0000   0.0000   0.0000   0.4434
   1.000   0.3164   0.01655   0.01122  -0.0506  0.8363  0.8529  -0.6426   0.0000   0.0000   0.0000   0.4078
   1.250   0.3650   0.01568   0.01033  -0.0530  0.8301  0.8557  -0.7246   0.0000   0.0000   0.0000   0.3928
   1.500   0.4083   0.01501   0.00963  -0.0546  0.8237  0.8589  -0.8048   0.0000   0.0000   0.0000   0.3811
   1.750   0.4265   0.01489   0.00956  -0.0527  0.8122  0.8632  -0.8552   0.0000   0.0000   0.0000   0.3706
   2.000   0.4655   0.01431   0.00896  -0.0539  0.8041  0.8661  -0.9321   0.0000   0.0000   0.0000   0.3628
   2.250   0.4952   0.01392   0.00857  -0.0537  0.7916  0.8697  -0.9989   0.0000   0.0000   0.0000   0.3552
   2.500   0.5291   0.01348   0.00811  -0.0543  0.7798  0.8729  -1.0718   0.0000   0.0000   0.0000   0.3492
   2.750   0.5580   0.01324   0.00790  -0.0542  0.7693  0.8761  -1.1387   0.0000   0.0000   0.0000   0.3435
   3.000   0.5825   0.01292   0.00763  -0.0531  0.7565  0.8796  -1.2296   0.0000   0.0000   0.0000   0.3372
   3.250   0.6070   0.01265   0.00739  -0.0518  0.7421  0.8840  -1.3288   0.0000   0.0000   0.0000   0.3312
   3.500   0.6337   0.01233   0.00710  -0.0508  0.7236  0.8891  -1.4369   0.0000   0.0000   0.0000   0.3259
   3.750   0.6578   0.01210   0.00687  -0.0497  0.6984  0.8942  -1.5391   0.0000   0.0000   0.0000   0.3210
   4.000   0.6815   0.01196   0.00673  -0.0486  0.6641  0.8986  -1.6415   0.0000   0.0000   0.0000   0.3166
   4.250   0.7027   0.01182   0.00646  -0.0468  0.6111  0.9029  -1.7409   0.0000   0.0000   0.0000   0.3116
   4.500   0.7152   0.01205   0.00622  -0.0433  0.5142  0.9083  -1.8243   0.0000   0.0000   0.0000   0.3053
   4.750   0.7197   0.01277   0.00638  -0.0390  0.4102  0.9154  -1.8901   0.0000   0.0000   0.0000   0.2987
   5.000   0.7253   0.01361   0.00674  -0.0353  0.3203  0.9230  -1.9567   0.0000   0.0000   0.0000   0.2929
   5.250   0.7287   0.01430   0.00706  -0.0311  0.2546  0.9315  -2.0181   0.0000   0.0000   0.0000   0.2867
   5.500   0.7360   0.01490   0.00742  -0.0276  0.2107  0.9419  -2.0865   0.0000   0.0000   0.0000   0.2813
   5.750   0.7478   0.01547   0.00791  -0.0251  0.1812  0.9536  -2.1564   0.0000   0.0000   0.0000   0.2771
   6.000   0.7642   0.01605   0.00836  -0.0235  0.1614  0.9677  -2.2445   0.0000   0.0000   0.0000   0.2740
   6.250   0.7896   0.01681   0.00900  -0.0240  0.1445  0.9843  -2.3699   0.0000   0.0000   0.0000   0.2734
   6.500   0.8160   0.01738   0.00951  -0.0246  0.1322  1.0000  -2.5185   0.0000   0.0000   0.0000   0.2730
   6.750   0.8403   0.01826   0.01034  -0.0249  0.1225  1.0000  -2.6576   0.0000   0.0000   0.0000   0.2722
   7.000   0.8675   0.01878   0.01092  -0.0255  0.1147  1.0000  -2.8113   0.0000   0.0000   0.0000   0.2717
   7.250   0.8922   0.01952   0.01160  -0.0258  0.1060  1.0000  -2.9596   0.0000   0.0000   0.0000   0.2709
   7.500   0.9188   0.02064   0.01271  -0.0263  0.0971  1.0000  -3.1042   0.0000   0.0000   0.0000   0.2704
   7.750   0.9426   0.02114   0.01327  -0.0263  0.0888  1.0000  -3.2514   0.0000   0.0000   0.0000   0.2693
   8.000   0.9634   0.02226   0.01427  -0.0260  0.0779  1.0000  -3.3844   0.0000   0.0000   0.0000   0.2681
   8.250   0.9878   0.02323   0.01531  -0.0260  0.0712  1.0000  -3.5222   0.0000   0.0000   0.0000   0.2672
   8.500   1.0103   0.02400   0.01629  -0.0256  0.0659  1.0000  -3.6448   0.0000   0.0000   0.0000   0.2659
   8.750   1.0329   0.02498   0.01733  -0.0252  0.0617  1.0000  -3.7741   0.0000   0.0000   0.0000   0.2647
   9.000   1.0544   0.02601   0.01841  -0.0247  0.0586  1.0000  -3.9073   0.0000   0.0000   0.0000   0.2634
   9.250   1.0758   0.02725   0.01970  -0.0243  0.0558  1.0000  -4.0386   0.0000   0.0000   0.0000   0.2622
   9.500   1.1036   0.02968   0.02227  -0.0251  0.0524  1.0000  -4.1581   0.0000   0.0000   0.0000   0.2621
   9.750   1.1307   0.03404   0.02703  -0.0264  0.0495  1.0000  -4.2197   0.0000   0.0000   0.0000   0.2624
  10.000   1.1433   0.03467   0.02778  -0.0244  0.0484  1.0000  -4.3283   0.0000   0.0000   0.0000   0.2601
  10.250   1.1550   0.03562   0.02886  -0.0224  0.0470  1.0000  -4.4237   0.0000   0.0000   0.0000   0.2578
  10.500   1.1652   0.03681   0.03017  -0.0203  0.0454  1.0000  -4.5074   0.0000   0.0000   0.0000   0.2556
  10.750   1.1743   0.03814   0.03163  -0.0183  0.0439  1.0000  -4.5858   0.0000   0.0000   0.0000   0.2534
  11.000   1.1809   0.03961   0.03323  -0.0161  0.0427  1.0000  -4.6556   0.0000   0.0000   0.0000   0.2511
  11.250   1.1858   0.04125   0.03500  -0.0140  0.0417  1.0000  -4.7202   0.0000   0.0000   0.0000   0.2488
  11.500   1.1887   0.04310   0.03700  -0.0118  0.0410  1.0000  -4.7760   0.0000   0.0000   0.0000   0.2466
  11.750   1.1890   0.04525   0.03931  -0.0096  0.0405  1.0000  -4.8179   0.0000   0.0000   0.0000   0.2445
  12.000   1.1858   0.04776   0.04200  -0.0075  0.0401  1.0000  -4.8410   0.0000   0.0000   0.0000   0.2423
  12.250   1.1785   0.05068   0.04513  -0.0054  0.0399  1.0000  -4.8420   0.0000   0.0000   0.0000   0.2402
  12.500   1.1664   0.05406   0.04874  -0.0035  0.0398  1.0000  -4.8185   0.0000   0.0000   0.0000   0.2383
  12.750   1.1491   0.05802   0.05296  -0.0020  0.0399  1.0000  -4.7672   0.0000   0.0000   0.0000   0.2366
  13.000   1.1255   0.06279   0.05801  -0.0012  0.0400  1.0000  -4.6816   0.0000   0.0000   0.0000   0.2355
  13.250   1.0939   0.06882   0.06432  -0.0015  0.0403  1.0000  -4.5493   0.0000   0.0000   0.0000   0.2354
  13.500   1.0517   0.07691   0.07272  -0.0039  0.0408  1.0000  -4.3508   0.0000   0.0000   0.0000   0.2373
  13.750   0.9674   0.09368   0.08990  -0.0136  0.0421  1.0000  -3.8708   0.0000   0.0000   0.0000   0.2473
  14.000   0.8153   0.14072   0.13713  -0.0405  0.0503  1.0000  -2.4328   0.0000   0.0000   0.0000   0.2843
  14.250   0.8280   0.14332   0.13974  -0.0422  0.0519  1.0000  -2.4533   0.0000   0.0000   0.0000   0.2852
  14.750   0.7931   0.17478   0.17119  -0.0548  0.0743  1.0000  -1.8032   0.0000   0.0000   0.0000   0.3040
  15.000   0.7965   0.17946   0.17588  -0.0574  0.0742  1.0000  -1.7915   0.0000   0.0000   0.0000   0.3066
  15.250   0.8002   0.18375   0.18017  -0.0600  0.0739  1.0000  -1.7810   0.0000   0.0000   0.0000   0.3092
  15.500   0.8032   0.18736   0.18377  -0.0627  0.0733  1.0000  -1.7655   0.0000   0.0000   0.0000   0.3120
  15.750   0.7966   0.18975   0.18613  -0.0671  0.0701  1.0000  -1.6797   0.0000   0.0000   0.0000   0.3179
  16.000   0.7986   0.19345   0.18983  -0.0699  0.0673  1.0000  -1.6573   0.0000   0.0000   0.0000   0.3209
  16.250   0.8034   0.19724   0.19363  -0.0722  0.0651  1.0000  -1.6578   0.0000   0.0000   0.0000   0.3230
  16.500   0.8091   0.20097   0.19736  -0.0744  0.0634  1.0000  -1.6658   0.0000   0.0000   0.0000   0.3246
  16.750   0.8154   0.20461   0.20101  -0.0764  0.0618  1.0000  -1.6780   0.0000   0.0000   0.0000   0.3260
  17.000   0.8223   0.20810   0.20450  -0.0783  0.0601  1.0000  -1.6974   0.0000   0.0000   0.0000   0.3271
  17.250   0.8304   0.21131   0.20772  -0.0800  0.0582  1.0000  -1.7318   0.0000   0.0000   0.0000   0.3278
  17.500   0.8404   0.21419   0.21062  -0.0812  0.0562  1.0000  -1.7896   0.0000   0.0000   0.0000   0.3277
  17.750   0.8521   0.21709   0.21353  -0.0822  0.0545  1.0000  -1.8638   0.0000   0.0000   0.0000   0.3270
  18.000   0.8643   0.22044   0.21691  -0.0831  0.0534  1.0000  -1.9341   0.0000   0.0000   0.0000   0.3262
  18.250   0.8798   0.22450   0.22100  -0.0835  0.0523  1.0000  -2.0279   0.0000   0.0000   0.0000   0.3246
  19.250   0.8941   0.24728   0.24375  -0.0936  0.0491  1.0000  -1.8192   0.0000   0.0000   0.0000   0.3329
  19.500   0.8949   0.24696   0.24342  -0.0964  0.0480  1.0000  -1.7669   0.0000   0.0000   0.0000   0.3355
  19.750   0.8951   0.24777   0.24421  -0.0997  0.0452  1.0000  -1.6997   0.0000   0.0000   0.0000   0.3387
  20.000   0.9011   0.25083   0.24727  -0.1019  0.0432  1.0000  -1.7213   0.0000   0.0000   0.0000   0.3400
  20.250   0.9082   0.25393   0.25038  -0.1037  0.0417  1.0000  -1.7645   0.0000   0.0000   0.0000   0.3407
  20.500   0.9160   0.25698   0.25343  -0.1054  0.0406  1.0000  -1.8215   0.0000   0.0000   0.0000   0.3410
  20.750   0.9246   0.26000   0.25646  -0.1069  0.0397  1.0000  -1.8926   0.0000   0.0000   0.0000   0.3411
  21.250   0.9464   0.26706   0.26362  -0.1090  0.0384  1.0000  -2.1072   0.0000   0.0000   0.0000   0.3395
  21.500   0.9626   0.27824   0.27482  -0.1095  0.0373  1.0000  -2.2306   0.0000   0.0000   0.0000   0.3377
  21.750   0.9660   0.28057   0.27715  -0.1119  0.0372  1.0000  -2.2173   0.0000   0.0000   0.0000   0.3393
  22.000   0.9672   0.28185   0.27842  -0.1146  0.0370  1.0000  -2.1774   0.0000   0.0000   0.0000   0.3415
  22.250   0.9674   0.28260   0.27915  -0.1175  0.0368  1.0000  -2.1208   0.0000   0.0000   0.0000   0.3440
  22.500   0.9655   0.28261   0.27914  -0.1213  0.0352  1.0000  -1.9939   0.0000   0.0000   0.0000   0.3477
  22.750   0.9710   0.28526   0.28179  -0.1235  0.0311  1.0000  -1.9797   0.0000   0.0000   0.0000   0.3488
  23.000   0.9787   0.28755   0.28409  -0.1251  0.0282  1.0000  -2.0309   0.0000   0.0000   0.0000   0.3488
  23.250   0.9887   0.28978   0.28635  -0.1261  0.0265  1.0000  -2.1412   0.0000   0.0000   0.0000   0.3478
  23.500   1.0022   0.30094   0.29751  -0.1263  0.0248  1.0000  -2.1870   0.0000   0.0000   0.0000   0.3458
  23.750   1.0068   0.30447   0.30103  -0.1285  0.0248  1.0000  -2.1012   0.0000   0.0000   0.0000   0.3469
  24.000   1.0118   0.30794   0.30450  -0.1306  0.0247  1.0000  -2.0419   0.0000   0.0000   0.0000   0.3479
  24.250   1.0170   0.31126   0.30782  -0.1326  0.0247  1.0000  -1.9960   0.0000   0.0000   0.0000   0.3488
  24.500   1.0217   0.31430   0.31086  -0.1347  0.0246  1.0000  -1.9537   0.0000   0.0000   0.0000   0.3497
  24.750   1.0262   0.31712   0.31368  -0.1369  0.0246  1.0000  -1.9138   0.0000   0.0000   0.0000   0.3507
  25.000   1.0308   0.31984   0.31640  -0.1390  0.0245  1.0000  -1.8787   0.0000   0.0000   0.0000   0.3517


