xflr5 v6.61

 Calculated polar for: NACA 63A-516

 3 1 Reynolds number ~ 1/CL         Mach number fixed         

 xtrf =   1.000 (top)        1.000 (bottom)
 Mach =   0.060     Re =     0.019 e 6     Ncrit =   9.000

  alpha     CL        CD       CDp       Cm    Top Xtr Bot Xtr   Cpmin    Chinge    XCp    
 ------- -------- --------- --------- -------- ------- ------- -------- --------- ---------
  -8.000  -0.3588   0.00972   0.00456  -0.1149  0.8368  0.0194  -3.2369   0.0000   0.0000   0.0000  -0.0885
  -7.750  -0.3355   0.00948   0.00424  -0.1141  0.8293  0.0194  -3.1068   0.0000   0.0000   0.0000  -0.1088
  -7.500  -0.3124   0.00926   0.00397  -0.1133  0.8226  0.0194  -2.9785   0.0000   0.0000   0.0000  -0.1316
  -7.250  -0.2894   0.00905   0.00371  -0.1124  0.8136  0.0195  -2.8526   0.0000   0.0000   0.0000  -0.1576
  -7.000  -0.2677   0.00889   0.00346  -0.1112  0.8022  0.0197  -2.7322   0.0000   0.0000   0.0000  -0.1851
  -6.750  -0.2441   0.00871   0.00323  -0.1103  0.7943  0.0200  -2.6110   0.0000   0.0000   0.0000  -0.2226
  -6.500  -0.2218   0.00855   0.00302  -0.1092  0.7848  0.0209  -2.4979   0.0000   0.0000   0.0000  -0.2639
  -6.250  -0.2002   0.00837   0.00282  -0.1080  0.7762  0.0230  -2.3917   0.0000   0.0000   0.0000  -0.3118
  -6.000  -0.1778   0.00816   0.00263  -0.1069  0.7693  0.0307  -2.2819   0.0000   0.0000   0.0000  -0.3753
  -5.750  -0.1564   0.00800   0.00248  -0.1056  0.7605  0.0380  -2.1612   0.0000   0.0000   0.0000  -0.4512
  -5.500  -0.1353   0.00785   0.00233  -0.1043  0.7517  0.0472  -2.0396   0.0000   0.0000   0.0000  -0.5492
  -5.250  -0.1112   0.00772   0.00221  -0.1036  0.7462  0.0530  -1.9130   0.0000   0.0000   0.0000  -0.7136
  -5.000  -0.0888   0.00758   0.00210  -0.1025  0.7393  0.0624  -1.7926   0.0000   0.0000   0.0000  -0.9419
  -4.750  -0.0672   0.00748   0.00199  -0.1012  0.7311  0.0716  -1.6758   0.0000   0.0000   0.0000  -1.3024
  -4.500  -0.0447   0.00735   0.00189  -0.1001  0.7248  0.0823  -1.5592   0.0000   0.0000   0.0000  -2.0544
  -4.250  -0.0218   0.00718   0.00179  -0.0991  0.7203  0.0992  -1.4442   0.0000   0.0000   0.0000  -4.4106
  -4.000   0.0001   0.00702   0.00168  -0.0979  0.7143  0.1189  -1.3337   0.0000   0.0000   0.0000  1408.0786
  -3.750   0.0186   0.00724   0.00188  -0.0967  0.7430  0.2669  -1.2271   0.0000   0.0000   0.0000   5.5817
  -3.500   0.0360   0.00808   0.00270  -0.0957  0.7789  0.4606  -1.1217   0.0000   0.0000   0.0000   2.9683
  -2.750   0.0712   0.01160   0.00561  -0.0868  0.8035  0.5869  -0.8677   0.0000   0.0000   0.0000   1.4939
  -2.500   0.0800   0.01272   0.00658  -0.0830  0.8036  0.6100  -0.7926   0.0000   0.0000   0.0000   1.3076
  -1.750   0.0958   0.01513   0.00883  -0.0694  0.7893  0.6594  -0.6381   0.0000   0.0000   0.0000   0.9863
  -1.500   0.1024   0.01609   0.00968  -0.0654  0.7860  0.6764  -0.5960   0.0000   0.0000   0.0000   0.8980
  -1.250   0.1096   0.01719   0.01064  -0.0615  0.7833  0.6946  -0.5995   0.0000   0.0000   0.0000   0.8192
  -1.000   0.1175   0.01834   0.01171  -0.0579  0.7812  0.7113  -0.6037   0.0000   0.0000   0.0000   0.7490
  -0.750   0.1254   0.01944   0.01265  -0.0545  0.7792  0.7285  -0.6075   0.0000   0.0000   0.0000   0.6895
  -0.500   0.1199   0.01911   0.01241  -0.0480  0.7638  0.7308  -0.6068   0.0000   0.0000   0.0000   0.6532
   0.000   0.1335   0.02109   0.01415  -0.0410  0.7569  0.7643  -0.6131   0.0000   0.0000   0.0000   0.5576
   0.500   0.1489   0.02343   0.01624  -0.0351  0.7530  0.8032  -0.6201   0.0000   0.0000   0.0000   0.4844
   1.000   0.1509   0.02518   0.01803  -0.0277  0.7319  0.8310  -0.6179   0.0000   0.0000   0.0000   0.4303
   1.250   0.1643   0.02750   0.02024  -0.0282  0.7308  0.8647  -0.6190   0.0000   0.0000   0.0000   0.4179
   1.500   0.2480   0.04029   0.03216  -0.0553  0.7759  0.9908  -0.6195   0.0000   0.0000   0.0000   0.4701
   2.000   0.2454   0.04062   0.03234  -0.0500  0.7575  1.0000  -0.6172   0.0000   0.0000   0.0000   0.4495
   2.250   0.2532   0.04206   0.03354  -0.0492  0.7564  1.0000  -0.6192   0.0000   0.0000   0.0000   0.4395
   2.500   0.2605   0.04372   0.03498  -0.0484  0.7559  1.0000  -0.6211   0.0000   0.0000   0.0000   0.4303
   2.750   0.2679   0.04547   0.03653  -0.0476  0.7556  1.0000  -0.6235   0.0000   0.0000   0.0000   0.4217
   3.000   0.2764   0.04725   0.03810  -0.0469  0.7554  1.0000  -0.6273   0.0000   0.0000   0.0000   0.4132
   3.250   0.2854   0.04907   0.03971  -0.0462  0.7552  1.0000  -0.6324   0.0000   0.0000   0.0000   0.4051
   3.750   0.2991   0.05277   0.04311  -0.0446  0.7555  1.0000  -0.6395   0.0000   0.0000   0.0000   0.3913
   4.000   0.3054   0.05463   0.04484  -0.0437  0.7558  1.0000  -0.6434   0.0000   0.0000   0.0000   0.3851
   4.250   0.3128   0.05651   0.04657  -0.0430  0.7560  1.0000  -0.6477   0.0000   0.0000   0.0000   0.3790
   4.500   0.3193   0.05839   0.04837  -0.0423  0.7564  1.0000  -0.6529   0.0000   0.0000   0.0000   0.3735
   5.000   0.3254   0.06215   0.05202  -0.0404  0.7592  1.0000  -0.6574   0.0000   0.0000   0.0000   0.3643
   5.250   0.3277   0.06409   0.05394  -0.0395  0.7618  1.0000  -0.6598   0.0000   0.0000   0.0000   0.3603
   5.500   0.3101   0.06676   0.05694  -0.0382  0.7890  1.0000  -0.6401   0.0000   0.0000   0.0000   0.3621
   5.750   0.3180   0.06885   0.05891  -0.0380  0.7920  1.0000  -0.6486   0.0000   0.0000   0.0000   0.3577
   6.000   0.3281   0.07100   0.06091  -0.0379  0.7938  1.0000  -0.6597   0.0000   0.0000   0.0000   0.3535
   7.250   0.3834   0.08189   0.07113  -0.0383  0.7868  1.0000  -0.7340   0.0000   0.0000   0.0000   0.3364
   8.000   0.4253   0.09033   0.07927  -0.0404  0.7814  1.0000  -0.7968   0.0000   0.0000   0.0000   0.3310
   8.500   0.4526   0.09712   0.08584  -0.0423  0.7773  1.0000  -0.8460   0.0000   0.0000   0.0000   0.3289
   9.000   0.4717   0.10119   0.08984  -0.0424  0.7558  1.0000  -0.8941   0.0000   0.0000   0.0000   0.3249
   9.250   0.4713   0.10253   0.09125  -0.0413  0.7412  1.0000  -0.9039   0.0000   0.0000   0.0000   0.3223
   9.500   0.4854   0.10568   0.09433  -0.0423  0.7341  1.0000  -0.9338   0.0000   0.0000   0.0000   0.3216
   9.750   0.5040   0.10987   0.09841  -0.0441  0.7298  1.0000  -0.9747   0.0000   0.0000   0.0000   0.3217
  10.250   0.5183   0.11494   0.10350  -0.0444  0.7060  1.0000  -1.0192   0.0000   0.0000   0.0000   0.3194
  10.750   0.5356   0.12084   0.10942  -0.0453  0.6813  1.0000  -1.0631   0.0000   0.0000   0.0000   0.3179
  11.250   0.5530   0.12776   0.11636  -0.0469  0.6620  1.0000  -1.1163   0.0000   0.0000   0.0000   0.3175
  11.500   0.5691   0.13160   0.12016  -0.0481  0.6484  1.0000  -1.1634   0.0000   0.0000   0.0000   0.3171
  12.000   0.5803   0.13775   0.12652  -0.0491  0.6238  1.0000  -1.2142   0.0000   0.0000   0.0000   0.3166
  12.500   0.5968   0.14461   0.13343  -0.0504  0.5965  1.0000  -1.2699   0.0000   0.0000   0.0000   0.3161
  12.750   0.6110   0.14943   0.13825  -0.0520  0.5892  1.0000  -1.3060   0.0000   0.0000   0.0000   0.3165
  13.000   0.6366   0.15774   0.14649  -0.0547  0.5841  1.0000  -1.3715   0.0000   0.0000   0.0000   0.3173
  13.250   0.6234   0.15590   0.14477  -0.0532  0.5617  1.0000  -1.3540   0.0000   0.0000   0.0000   0.3161
  13.500   0.6432   0.16260   0.15144  -0.0552  0.5558  1.0000  -1.4104   0.0000   0.0000   0.0000   0.3165
  13.750   0.6638   0.17137   0.16017  -0.0577  0.5532  1.0000  -1.4621   0.0000   0.0000   0.0000   0.3176
  14.000   0.6430   0.16688   0.15582  -0.0559  0.5322  1.0000  -1.4217   0.0000   0.0000   0.0000   0.3168
  14.250   0.6703   0.17572   0.16460  -0.0581  0.5241  1.0000  -1.4909   0.0000   0.0000   0.0000   0.3166
  14.500   0.6556   0.17430   0.16326  -0.0577  0.5119  1.0000  -1.4566   0.0000   0.0000   0.0000   0.3173
  14.750   0.6630   0.17788   0.16686  -0.0587  0.5030  1.0000  -1.4733   0.0000   0.0000   0.0000   0.3176
  15.000   0.6766   0.18346   0.17243  -0.0602  0.4973  1.0000  -1.5019   0.0000   0.0000   0.0000   0.3178
  15.500   0.6839   0.18892   0.17790  -0.0617  0.4739  1.0000  -1.5101   0.0000   0.0000   0.0000   0.3183
  15.750   0.6972   0.19435   0.18332  -0.0631  0.4673  1.0000  -1.5322   0.0000   0.0000   0.0000   0.3183
  16.000   0.7118   0.20131   0.19026  -0.0647  0.4640  1.0000  -1.5521   0.0000   0.0000   0.0000   0.3185
  16.250   0.7282   0.21024   0.19917  -0.0666  0.4619  1.0000  -1.5710   0.0000   0.0000   0.0000   0.3189
  16.500   0.7105   0.20443   0.19340  -0.0667  0.4500  1.0000  -1.5216   0.0000   0.0000   0.0000   0.3205
  16.750   0.7219   0.20875   0.19770  -0.0677  0.4386  1.0000  -1.5336   0.0000   0.0000   0.0000   0.3201
  17.000   0.7453   0.21938   0.20843  -0.0692  0.4321  1.0000  -1.5714   0.0000   0.0000   0.0000   0.3191
  17.250   0.7437   0.22087   0.20989  -0.0704  0.4278  1.0000  -1.5593   0.0000   0.0000   0.0000   0.3204
  17.500   0.7399   0.21901   0.20805  -0.0714  0.4164  1.0000  -1.5442   0.0000   0.0000   0.0000   0.3217
  17.750   0.7490   0.22323   0.21225  -0.0727  0.4102  1.0000  -1.5600   0.0000   0.0000   0.0000   0.3218
  18.000   0.7609   0.22899   0.21799  -0.0740  0.4058  1.0000  -1.5813   0.0000   0.0000   0.0000   0.3218
  18.250   0.7755   0.23710   0.22608  -0.0754  0.4025  1.0000  -1.6072   0.0000   0.0000   0.0000   0.3215
  18.500   0.7916   0.24835   0.23725  -0.0770  0.3996  1.0000  -1.6330   0.0000   0.0000   0.0000   0.3214
  18.750   0.7769   0.23745   0.22636  -0.0783  0.3863  1.0000  -1.5882   0.0000   0.0000   0.0000   0.3238
  19.000   0.7896   0.24282   0.23171  -0.0793  0.3767  1.0000  -1.6112   0.0000   0.0000   0.0000   0.3232
  19.250   0.8069   0.25311   0.24197  -0.0803  0.3720  1.0000  -1.6421   0.0000   0.0000   0.0000   0.3222
  19.500   0.8234   0.26586   0.25471  -0.0818  0.3701  1.0000  -1.6648   0.0000   0.0000   0.0000   0.3218
  19.750   0.8094   0.25387   0.24265  -0.0839  0.3631  1.0000  -1.6151   0.0000   0.0000   0.0000   0.3250
  20.000   0.8146   0.25576   0.24452  -0.0854  0.3558  1.0000  -1.6124   0.0000   0.0000   0.0000   0.3257
  20.250   0.8235   0.25999   0.24873  -0.0868  0.3504  1.0000  -1.6185   0.0000   0.0000   0.0000   0.3259
  20.500   0.8343   0.26577   0.25448  -0.0881  0.3462  1.0000  -1.6290   0.0000   0.0000   0.0000   0.3257
  20.750   0.8470   0.27391   0.26261  -0.0893  0.3431  1.0000  -1.6430   0.0000   0.0000   0.0000   0.3252
  21.000   0.8618   0.28585   0.27454  -0.0906  0.3410  1.0000  -1.6590   0.0000   0.0000   0.0000   0.3247
  21.250   0.8586   0.28191   0.27052  -0.0927  0.3378  1.0000  -1.6303   0.0000   0.0000   0.0000   0.3268
  21.500   0.8582   0.27900   0.26758  -0.0948  0.3294  1.0000  -1.6096   0.0000   0.0000   0.0000   0.3285
  21.750   0.8662   0.28276   0.27133  -0.0962  0.3219  1.0000  -1.6121   0.0000   0.0000   0.0000   0.3286
  22.000   0.8783   0.28976   0.27831  -0.0972  0.3160  1.0000  -1.6258   0.0000   0.0000   0.0000   0.3278
  22.250   0.8954   0.30385   0.29251  -0.0979  0.3121  1.0000  -1.6495   0.0000   0.0000   0.0000   0.3264
  22.500   0.8938   0.30121   0.28980  -0.1003  0.3088  1.0000  -1.6219   0.0000   0.0000   0.0000   0.3284
  22.750   0.8939   0.29848   0.28704  -0.1026  0.3010  1.0000  -1.5990   0.0000   0.0000   0.0000   0.3301
  23.000   0.9008   0.30201   0.29056  -0.1042  0.2952  1.0000  -1.6049   0.0000   0.0000   0.0000   0.3305
  23.250   0.9094   0.30700   0.29554  -0.1056  0.2908  1.0000  -1.6220   0.0000   0.0000   0.0000   0.3305
  23.500   0.9194   0.31366   0.30220  -0.1068  0.2873  1.0000  -1.6435   0.0000   0.0000   0.0000   0.3302
  23.750   0.9310   0.32330   0.31184  -0.1079  0.2846  1.0000  -1.6693   0.0000   0.0000   0.0000   0.3295
  24.000   0.9448   0.33817   0.32673  -0.1089  0.2829  1.0000  -1.6986   0.0000   0.0000   0.0000   0.3287
  24.250   0.9400   0.32984   0.31829  -0.1119  0.2805  1.0000  -1.6667   0.0000   0.0000   0.0000   0.3314
  24.500   0.9409   0.32778   0.31622  -0.1144  0.2754  1.0000  -1.6527   0.0000   0.0000   0.0000   0.3331
  24.750   0.9464   0.33064   0.31906  -0.1163  0.2702  1.0000  -1.6550   0.0000   0.0000   0.0000   0.3338
  25.000   0.9533   0.33496   0.32339  -0.1180  0.2657  1.0000  -1.6631   0.0000   0.0000   0.0000   0.3340


