xflr5 v6.61

 Calculated polar for: NACA 63-415

 3 1 Reynolds number ~ 1/CL         Mach number fixed         

 xtrf =   1.000 (top)        1.000 (bottom)
 Mach =   0.060     Re =     0.019 e 6     Ncrit =   9.000

  alpha     CL        CD       CDp       Cm    Top Xtr Bot Xtr   Cpmin    Chinge    XCp    
 ------- -------- --------- --------- -------- ------- ------- -------- --------- ---------
  -8.000  -0.5773   0.01008   0.00460  -0.0665  0.7646  0.0140  -3.8959   0.0000   0.0000   0.0000   0.1243
  -7.750  -0.5500   0.00988   0.00436  -0.0666  0.7518  0.0143  -3.7221   0.0000   0.0000   0.0000   0.1184
  -7.500  -0.5221   0.00966   0.00414  -0.0668  0.7496  0.0147  -3.5497   0.0000   0.0000   0.0000   0.1116
  -7.250  -0.4939   0.00945   0.00392  -0.0671  0.7473  0.0150  -3.3799   0.0000   0.0000   0.0000   0.1039
  -7.000  -0.4657   0.00926   0.00372  -0.0673  0.7437  0.0153  -3.2117   0.0000   0.0000   0.0000   0.0952
  -6.750  -0.4377   0.00898   0.00346  -0.0675  0.7385  0.0205  -3.0651   0.0000   0.0000   0.0000   0.0855
  -6.500  -0.4099   0.00872   0.00323  -0.0678  0.7318  0.0258  -2.9021   0.0000   0.0000   0.0000   0.0743
  -6.250  -0.3814   0.00859   0.00306  -0.0681  0.7237  0.0270  -2.7445   0.0000   0.0000   0.0000   0.0612
  -6.000  -0.3529   0.00849   0.00291  -0.0683  0.7131  0.0275  -2.5890   0.0000   0.0000   0.0000   0.0459
  -5.750  -0.3241   0.00839   0.00277  -0.0686  0.7025  0.0278  -2.4354   0.0000   0.0000   0.0000   0.0276
  -5.500  -0.2950   0.00826   0.00264  -0.0690  0.7000  0.0280  -2.2836   0.0000   0.0000   0.0000   0.0052
  -5.250  -0.2658   0.00814   0.00251  -0.0694  0.6982  0.0282  -2.1347   0.0000   0.0000   0.0000  -0.0223
  -5.000  -0.2365   0.00802   0.00237  -0.0697  0.6948  0.0283  -1.9939   0.0000   0.0000   0.0000  -0.0566
  -4.750  -0.2073   0.00789   0.00223  -0.0700  0.6893  0.0355  -1.8576   0.0000   0.0000   0.0000  -0.1003
  -4.500  -0.1784   0.00777   0.00211  -0.0704  0.6817  0.0426  -1.7191   0.0000   0.0000   0.0000  -0.1581
  -4.250  -0.1495   0.00761   0.00198  -0.0707  0.6732  0.0530  -1.5823   0.0000   0.0000   0.0000  -0.2380
  -4.000  -0.1207   0.00738   0.00179  -0.0712  0.6628  0.0772  -1.4411   0.0000   0.0000   0.0000  -0.3569
  -3.750  -0.0917   0.00711   0.00162  -0.0717  0.6527  0.1026  -1.3133   0.0000   0.0000   0.0000  -0.5525
  -3.250  -0.0327   0.00662   0.00138  -0.0728  0.6486  0.1762  -1.0644   0.0000   0.0000   0.0000  -2.0267
  -3.000  -0.0031   0.00625   0.00124  -0.0735  0.6461  0.2338  -0.9453   0.0000   0.0000   0.0000  -23.8058
  -2.750   0.0230   0.00656   0.00170  -0.0744  0.6852  0.4864  -0.8306   0.0000   0.0000   0.0000   3.5335
  -2.500   0.0483   0.00886   0.00345  -0.0743  0.7243  0.5703  -0.7264   0.0000   0.0000   0.0000   1.8128
  -2.250   0.0711   0.01147   0.00574  -0.0734  0.7450  0.6167  -0.6440   0.0000   0.0000   0.0000   1.2971
  -2.000   0.0920   0.01408   0.00803  -0.0717  0.7586  0.6466  -0.5670   0.0000   0.0000   0.0000   1.0392
  -1.500   0.1215   0.01784   0.01152  -0.0667  0.7669  0.6865  -0.5608   0.0000   0.0000   0.0000   0.8047
  -1.250   0.1338   0.01945   0.01292  -0.0644  0.7674  0.7042  -0.5643   0.0000   0.0000   0.0000   0.7361
  -1.000   0.1419   0.02071   0.01414  -0.0602  0.7654  0.7169  -0.5671   0.0000   0.0000   0.0000   0.6775
  -0.750   0.1504   0.02209   0.01541  -0.0567  0.7633  0.7315  -0.5688   0.0000   0.0000   0.0000   0.6295
  -0.500   0.1596   0.02356   0.01671  -0.0544  0.7613  0.7467  -0.5725   0.0000   0.0000   0.0000   0.5925
  -0.250   0.1663   0.02432   0.01740  -0.0507  0.7586  0.7590  -0.5767   0.0000   0.0000   0.0000   0.5559
   0.000   0.1725   0.02551   0.01853  -0.0464  0.7558  0.7719  -0.5807   0.0000   0.0000   0.0000   0.5193
   0.250   0.1795   0.02693   0.01984  -0.0432  0.7533  0.7881  -0.5836   0.0000   0.0000   0.0000   0.4902
   0.750   0.1713   0.02742   0.02048  -0.0364  0.7260  0.7990  -0.5749   0.0000   0.0000   0.0000   0.4605
   1.250   0.1790   0.02845   0.02146  -0.0282  0.7151  0.8233  -0.5850   0.0000   0.0000   0.0000   0.4039
   1.500   0.1847   0.02944   0.02237  -0.0250  0.7116  0.8393  -0.5897   0.0000   0.0000   0.0000   0.3814
   1.750   0.1903   0.03043   0.02328  -0.0223  0.7089  0.8541  -0.5934   0.0000   0.0000   0.0000   0.3627
   2.000   0.1955   0.03149   0.02432  -0.0187  0.7064  0.8695  -0.5973   0.0000   0.0000   0.0000   0.3405
   2.500   0.2024   0.03424   0.02701  -0.0133  0.6980  0.9026  -0.6008   0.0000   0.0000   0.0000   0.3096
   2.750   0.1876   0.03343   0.02647  -0.0092  0.6732  0.9050  -0.5935   0.0000   0.0000   0.0000   0.2919
   3.000   0.3012   0.04870   0.04040  -0.0399  0.7445  0.9999  -0.6228   0.0000   0.0000   0.0000   0.3772
   3.250   0.3171   0.05087   0.04233  -0.0409  0.7521  1.0000  -0.6386   0.0000   0.0000   0.0000   0.3733
   3.750   0.2825   0.04748   0.03935  -0.0290  0.7110  1.0000  -0.6302   0.0000   0.0000   0.0000   0.3459
   4.000   0.2843   0.04780   0.03961  -0.0265  0.7073  1.0000  -0.6382   0.0000   0.0000   0.0000   0.3360
   4.250   0.2879   0.04864   0.04034  -0.0245  0.7047  1.0000  -0.6465   0.0000   0.0000   0.0000   0.3274
   4.500   0.2655   0.04686   0.03881  -0.0187  0.6739  1.0000  -0.6376   0.0000   0.0000   0.0000   0.3116
   4.750   0.3082   0.05233   0.04365  -0.0245  0.7027  1.0000  -0.6768   0.0000   0.0000   0.0000   0.3210
   5.000   0.3184   0.05456   0.04569  -0.0245  0.6997  1.0000  -0.6915   0.0000   0.0000   0.0000   0.3183
   5.250   0.3301   0.05688   0.04785  -0.0251  0.7018  1.0000  -0.7061   0.0000   0.0000   0.0000   0.3173
   5.500   0.3023   0.05384   0.04515  -0.0192  0.6683  1.0000  -0.6911   0.0000   0.0000   0.0000   0.3036
   5.750   0.3102   0.05581   0.04700  -0.0192  0.6675  1.0000  -0.7057   0.0000   0.0000   0.0000   0.3018
   6.000   0.3199   0.05781   0.04887  -0.0193  0.6663  1.0000  -0.7220   0.0000   0.0000   0.0000   0.3001
   6.250   0.3323   0.05988   0.05078  -0.0196  0.6644  1.0000  -0.7411   0.0000   0.0000   0.0000   0.2985
   6.500   0.3466   0.06207   0.05279  -0.0201  0.6622  1.0000  -0.7634   0.0000   0.0000   0.0000   0.2971
   6.750   0.3606   0.06441   0.05499  -0.0206  0.6603  1.0000  -0.8037   0.0000   0.0000   0.0000   0.2961
   7.000   0.3703   0.06684   0.05734  -0.0209  0.6594  1.0000  -0.8360   0.0000   0.0000   0.0000   0.2953
   7.250   0.3788   0.06939   0.05982  -0.0213  0.6586  1.0000  -0.8658   0.0000   0.0000   0.0000   0.2948
   7.500   0.3857   0.07201   0.06241  -0.0216  0.6581  1.0000  -0.8919   0.0000   0.0000   0.0000   0.2944
   7.750   0.3887   0.07297   0.06335  -0.0203  0.6364  1.0000  -0.9167   0.0000   0.0000   0.0000   0.2901
   8.000   0.3970   0.07450   0.06484  -0.0200  0.6239  1.0000  -0.9471   0.0000   0.0000   0.0000   0.2882
   8.250   0.4165   0.07696   0.06715  -0.0208  0.6156  1.0000  -1.0133   0.0000   0.0000   0.0000   0.2875
   8.500   0.4396   0.08009   0.07010  -0.0220  0.6098  1.0000  -1.1111   0.0000   0.0000   0.0000   0.2876
   8.750   0.4561   0.08369   0.07362  -0.0232  0.6069  1.0000  -1.1877   0.0000   0.0000   0.0000   0.2884
   9.000   0.4494   0.08456   0.07460  -0.0218  0.5834  1.0000  -1.2065   0.0000   0.0000   0.0000   0.2854
   9.250   0.4530   0.08707   0.07715  -0.0221  0.5751  1.0000  -1.2451   0.0000   0.0000   0.0000   0.2855
   9.500   0.4602   0.09012   0.08022  -0.0229  0.5698  1.0000  -1.2912   0.0000   0.0000   0.0000   0.2862
   9.750   0.4797   0.09364   0.08366  -0.0241  0.5618  1.0000  -1.3741   0.0000   0.0000   0.0000   0.2866
  10.000   0.4935   0.09551   0.08548  -0.0236  0.5324  1.0000  -1.4506   0.0000   0.0000   0.0000   0.2840
  10.500   0.5240   0.10227   0.09220  -0.0253  0.5097  1.0000  -1.5840   0.0000   0.0000   0.0000   0.2843
  10.750   0.5313   0.10480   0.09473  -0.0252  0.4861  1.0000  -1.6317   0.0000   0.0000   0.0000   0.2830
  11.000   0.5518   0.10691   0.09681  -0.0251  0.4618  1.0000  -1.7211   0.0000   0.0000   0.0000   0.2810
  11.250   0.6054   0.11410   0.10438  -0.0268  0.4509  1.0000  -1.9748   0.0000   0.0000   0.0000   0.2799
  11.500   0.5589   0.11401   0.10451  -0.0263  0.4315  1.0000  -1.8261   0.0000   0.0000   0.0000   0.2820
  11.750   0.5681   0.11729   0.10784  -0.0268  0.4153  1.0000  -1.8611   0.0000   0.0000   0.0000   0.2820
  12.000   0.5885   0.11910   0.10960  -0.0258  0.3777  1.0000  -1.9518   0.0000   0.0000   0.0000   0.2784
  12.250   0.6273   0.12256   0.11305  -0.0251  0.3551  1.0000  -2.0813   0.0000   0.0000   0.0000   0.2746
  12.500   0.6364   0.12818   0.11864  -0.0260  0.3440  1.0000  -2.0839   0.0000   0.0000   0.0000   0.2752
  12.750   0.6130   0.13172   0.12231  -0.0281  0.3370  1.0000  -1.9783   0.0000   0.0000   0.0000   0.2797
  13.000   0.6069   0.13659   0.12724  -0.0301  0.3354  1.0000  -1.9193   0.0000   0.0000   0.0000   0.2832
  13.500   0.5578   0.14921   0.14017  -0.0393  0.4226  1.0000  -1.6302   0.0000   0.0000   0.0000   0.3036
  13.750   0.5627   0.15329   0.14426  -0.0408  0.4206  1.0000  -1.6158   0.0000   0.0000   0.0000   0.3054
  14.000   0.6147   0.16549   0.15630  -0.0417  0.4024  1.0000  -1.7170   0.0000   0.0000   0.0000   0.3011
  14.250   0.6418   0.17827   0.16898  -0.0440  0.3998  1.0000  -1.7320   0.0000   0.0000   0.0000   0.3018
  15.000   0.5978   0.17251   0.16337  -0.0467  0.3786  1.0000  -1.5519   0.0000   0.0000   0.0000   0.3097
  15.250   0.6038   0.17601   0.16685  -0.0480  0.3734  1.0000  -1.5305   0.0000   0.0000   0.0000   0.3108
  15.500   0.6111   0.17987   0.17067  -0.0493  0.3694  1.0000  -1.5106   0.0000   0.0000   0.0000   0.3118
  16.000   0.6285   0.18831   0.17902  -0.0519  0.3630  1.0000  -1.4737   0.0000   0.0000   0.0000   0.3132
  16.250   0.6390   0.19312   0.18376  -0.0532  0.3601  1.0000  -1.4576   0.0000   0.0000   0.0000   0.3137
  16.500   0.6505   0.19851   0.18909  -0.0546  0.3575  1.0000  -1.4433   0.0000   0.0000   0.0000   0.3141
  16.750   0.6654   0.20547   0.19597  -0.0559  0.3547  1.0000  -1.4350   0.0000   0.0000   0.0000   0.3141
  17.000   0.6861   0.21610   0.20651  -0.0575  0.3518  1.0000  -1.4363   0.0000   0.0000   0.0000   0.3137
  17.500   0.6667   0.20951   0.19986  -0.0598  0.3323  1.0000  -1.3448   0.0000   0.0000   0.0000   0.3183
  17.750   0.6734   0.21180   0.20210  -0.0608  0.3218  1.0000  -1.3316   0.0000   0.0000   0.0000   0.3186
  18.000   0.6828   0.21561   0.20584  -0.0620  0.3163  1.0000  -1.3223   0.0000   0.0000   0.0000   0.3188
  18.500   0.7034   0.22499   0.21520  -0.0644  0.3093  1.0000  -1.3028   0.0000   0.0000   0.0000   0.3190
  18.750   0.7147   0.23045   0.22059  -0.0657  0.3068  1.0000  -1.2986   0.0000   0.0000   0.0000   0.3191
  19.000   0.7266   0.23662   0.22670  -0.0671  0.3048  1.0000  -1.2966   0.0000   0.0000   0.0000   0.3192
  19.250   0.7391   0.24372   0.23372  -0.0685  0.3031  1.0000  -1.2963   0.0000   0.0000   0.0000   0.3193
  19.500   0.7524   0.25199   0.24193  -0.0701  0.3016  1.0000  -1.2977   0.0000   0.0000   0.0000   0.3195
  19.750   0.7669   0.26208   0.25196  -0.0718  0.3004  1.0000  -1.3011   0.0000   0.0000   0.0000   0.3197
  20.500   0.7585   0.25570   0.24538  -0.0758  0.2911  1.0000  -1.2241   0.0000   0.0000   0.0000   0.3243
  20.750   0.7566   0.25164   0.24128  -0.0770  0.2817  1.0000  -1.2048   0.0000   0.0000   0.0000   0.3254
  21.000   0.7624   0.25355   0.24314  -0.0783  0.2753  1.0000  -1.2000   0.0000   0.0000   0.0000   0.3259
  21.250   0.7699   0.25655   0.24608  -0.0795  0.2698  1.0000  -1.1996   0.0000   0.0000   0.0000   0.3260
  21.500   0.7786   0.26029   0.24977  -0.0807  0.2651  1.0000  -1.2024   0.0000   0.0000   0.0000   0.3260
  21.750   0.7883   0.26482   0.25425  -0.0819  0.2611  1.0000  -1.2081   0.0000   0.0000   0.0000   0.3259
  22.000   0.7989   0.27031   0.25969  -0.0831  0.2578  1.0000  -1.2160   0.0000   0.0000   0.0000   0.3257
  22.250   0.8102   0.27690   0.26624  -0.0844  0.2552  1.0000  -1.2251   0.0000   0.0000   0.0000   0.3255
  22.500   0.8222   0.28492   0.27421  -0.0858  0.2531  1.0000  -1.2352   0.0000   0.0000   0.0000   0.3253
  22.750   0.8358   0.29555   0.28480  -0.0873  0.2513  1.0000  -1.2535   0.0000   0.0000   0.0000   0.3252
  23.000   0.8516   0.31048   0.29971  -0.0891  0.2496  1.0000  -1.2966   0.0000   0.0000   0.0000   0.3252
  23.500   0.8778   0.34257   0.33164  -0.0935  0.2471  1.0000  -1.3461   0.0000   0.0000   0.0000   0.3266
  23.750   0.8595   0.31729   0.30629  -0.0938  0.2452  1.0000  -1.3016   0.0000   0.0000   0.0000   0.3280
  24.000   0.8453   0.29751   0.28647  -0.0948  0.2392  1.0000  -1.2617   0.0000   0.0000   0.0000   0.3299
  24.250   0.8465   0.29583   0.28474  -0.0962  0.2326  1.0000  -1.2567   0.0000   0.0000   0.0000   0.3308
  24.500   0.8512   0.29757   0.28645  -0.0976  0.2261  1.0000  -1.2598   0.0000   0.0000   0.0000   0.3312
  24.750   0.8581   0.30069   0.28978  -0.0987  0.2185  1.0000  -1.2740   0.0000   0.0000   0.0000   0.3311
  25.000   0.8686   0.30641   0.29547  -0.0996  0.2101  1.0000  -1.2967   0.0000   0.0000   0.0000   0.3304


