xflr5 v6.61

 Calculated polar for: NACA 64(2)-415

 3 1 Reynolds number ~ 1/CL         Mach number fixed         

 xtrf =   1.000 (top)        1.000 (bottom)
 Mach =   0.060     Re =     0.019 e 6     Ncrit =   9.000

  alpha     CL        CD       CDp       Cm    Top Xtr Bot Xtr   Cpmin    Chinge    XCp    
 ------- -------- --------- --------- -------- ------- ------- -------- --------- ---------
  -8.000  -0.5657   0.01045   0.00514  -0.0681  0.7632  0.0144  -4.1016   0.0000   0.0000   0.0000   0.1192
  -7.750  -0.5393   0.01023   0.00487  -0.0681  0.7515  0.0146  -3.9258   0.0000   0.0000   0.0000   0.1134
  -7.500  -0.5122   0.00998   0.00461  -0.0682  0.7495  0.0147  -3.7500   0.0000   0.0000   0.0000   0.1066
  -7.250  -0.4849   0.00976   0.00438  -0.0683  0.7467  0.0149  -3.5745   0.0000   0.0000   0.0000   0.0989
  -7.000  -0.4572   0.00957   0.00418  -0.0685  0.7423  0.0151  -3.3953   0.0000   0.0000   0.0000   0.0900
  -6.500  -0.4024   0.00912   0.00359  -0.0688  0.7278  0.0165  -3.0755   0.0000   0.0000   0.0000   0.0689
  -6.250  -0.3755   0.00877   0.00317  -0.0688  0.7178  0.0220  -2.9714   0.0000   0.0000   0.0000   0.0564
  -6.000  -0.3476   0.00858   0.00301  -0.0691  0.7059  0.0256  -2.8116   0.0000   0.0000   0.0000   0.0409
  -5.750  -0.3191   0.00846   0.00289  -0.0694  0.7004  0.0272  -2.6456   0.0000   0.0000   0.0000   0.0219
  -5.500  -0.2901   0.00836   0.00281  -0.0698  0.6985  0.0277  -2.4792   0.0000   0.0000   0.0000  -0.0014
  -5.250  -0.2612   0.00827   0.00272  -0.0702  0.6955  0.0280  -2.3185   0.0000   0.0000   0.0000  -0.0298
  -5.000  -0.2324   0.00811   0.00251  -0.0705  0.6910  0.0280  -2.1790   0.0000   0.0000   0.0000  -0.0650
  -4.750  -0.2036   0.00805   0.00245  -0.0708  0.6849  0.0282  -2.0203   0.0000   0.0000   0.0000  -0.1104
  -4.500  -0.1749   0.00794   0.00228  -0.0711  0.6774  0.0294  -1.8775   0.0000   0.0000   0.0000  -0.1701
  -4.250  -0.1463   0.00773   0.00203  -0.0714  0.6680  0.0454  -1.7545   0.0000   0.0000   0.0000  -0.2527
  -4.000  -0.1176   0.00760   0.00189  -0.0717  0.6570  0.0526  -1.6075   0.0000   0.0000   0.0000  -0.3773
  -3.750  -0.0887   0.00738   0.00175  -0.0722  0.6506  0.0766  -1.4721   0.0000   0.0000   0.0000  -0.5843
  -3.500  -0.0597   0.00707   0.00159  -0.0728  0.6494  0.1036  -1.3398   0.0000   0.0000   0.0000  -0.9968
  -3.250  -0.0305   0.00677   0.00145  -0.0733  0.6474  0.1487  -1.2105   0.0000   0.0000   0.0000  -2.2019
  -3.000  -0.0013   0.00646   0.00132  -0.0739  0.6442  0.2011  -1.0845   0.0000   0.0000   0.0000  -55.7895
  -2.750   0.0234   0.00661   0.00173  -0.0747  0.6829  0.5055  -0.9644   0.0000   0.0000   0.0000   3.4970
  -2.250   0.0680   0.01156   0.00597  -0.0720  0.7385  0.6385  -0.7315   0.0000   0.0000   0.0000   1.3236
  -2.000   0.0871   0.01391   0.00800  -0.0699  0.7492  0.6658  -0.6315   0.0000   0.0000   0.0000   1.0627
  -1.500   0.1182   0.01777   0.01143  -0.0651  0.7630  0.7051  -0.5712   0.0000   0.0000   0.0000   0.8068
  -1.250   0.1276   0.01928   0.01287  -0.0609  0.7631  0.7183  -0.5710   0.0000   0.0000   0.0000   0.7325
  -1.000   0.1367   0.02085   0.01431  -0.0575  0.7625  0.7334  -0.5693   0.0000   0.0000   0.0000   0.6742
  -0.750   0.1459   0.02242   0.01570  -0.0552  0.7614  0.7472  -0.5658   0.0000   0.0000   0.0000   0.6311
  -0.500   0.1523   0.02314   0.01635  -0.0517  0.7593  0.7579  -0.5627   0.0000   0.0000   0.0000   0.5914
  -0.250   0.1581   0.02430   0.01745  -0.0477  0.7570  0.7681  -0.5619   0.0000   0.0000   0.0000   0.5525
   0.000   0.1640   0.02561   0.01867  -0.0442  0.7548  0.7807  -0.5616   0.0000   0.0000   0.0000   0.5200
   0.250   0.1698   0.02713   0.02008  -0.0416  0.7526  0.7941  -0.5598   0.0000   0.0000   0.0000   0.4948
   0.500   0.1567   0.02628   0.01950  -0.0372  0.7325  0.7899  -0.5504   0.0000   0.0000   0.0000   0.4863
   0.750   0.1586   0.02697   0.02013  -0.0342  0.7247  0.7977  -0.5504   0.0000   0.0000   0.0000   0.4637
   1.250   0.1633   0.02822   0.02137  -0.0268  0.7159  0.8168  -0.5513   0.0000   0.0000   0.0000   0.4109
   1.500   0.1664   0.02922   0.02235  -0.0235  0.7129  0.8285  -0.5511   0.0000   0.0000   0.0000   0.3872
   1.750   0.1704   0.03038   0.02345  -0.0208  0.7107  0.8417  -0.5503   0.0000   0.0000   0.0000   0.3675
   2.000   0.1754   0.03137   0.02437  -0.0181  0.7087  0.8553  -0.5520   0.0000   0.0000   0.0000   0.3479
   2.250   0.1803   0.03242   0.02539  -0.0145  0.7068  0.8700  -0.5563   0.0000   0.0000   0.0000   0.3245
   2.500   0.1850   0.03379   0.02671  -0.0118  0.7054  0.8866  -0.5587   0.0000   0.0000   0.0000   0.3074
   2.750   0.1894   0.03520   0.02808  -0.0096  0.7045  0.9027  -0.5600   0.0000   0.0000   0.0000   0.2941
   3.000   0.1710   0.03475   0.02796  -0.0058  0.6815  0.8991  -0.5463   0.0000   0.0000   0.0000   0.2759
   3.250   0.2031   0.03928   0.03208  -0.0085  0.7057  0.9432  -0.5627   0.0000   0.0000   0.0000   0.2843
   3.500   0.2575   0.04825   0.04041  -0.0268  0.7431  0.9907  -0.5718   0.0000   0.0000   0.0000   0.3472
   3.750   0.2776   0.05042   0.04231  -0.0302  0.7559  1.0000  -0.5865   0.0000   0.0000   0.0000   0.3518
   4.000   0.2517   0.04779   0.04003  -0.0224  0.7230  1.0000  -0.5776   0.0000   0.0000   0.0000   0.3310
   4.250   0.2488   0.04723   0.03946  -0.0189  0.7153  1.0000  -0.5836   0.0000   0.0000   0.0000   0.3173
   4.500   0.2501   0.04739   0.03954  -0.0164  0.7114  1.0000  -0.5907   0.0000   0.0000   0.0000   0.3065
   5.000   0.2642   0.05016   0.04199  -0.0155  0.7103  1.0000  -0.6129   0.0000   0.0000   0.0000   0.2989
   5.250   0.2753   0.05187   0.04351  -0.0155  0.7097  1.0000  -0.6324   0.0000   0.0000   0.0000   0.2964
   5.500   0.2860   0.05367   0.04513  -0.0155  0.7092  1.0000  -0.6516   0.0000   0.0000   0.0000   0.2940
   5.750   0.2931   0.05547   0.04683  -0.0152  0.7093  1.0000  -0.6664   0.0000   0.0000   0.0000   0.2915
   6.000   0.2989   0.05728   0.04857  -0.0149  0.7095  1.0000  -0.6810   0.0000   0.0000   0.0000   0.2889
   6.250   0.3069   0.05920   0.05039  -0.0147  0.7094  1.0000  -0.7088   0.0000   0.0000   0.0000   0.2869
   7.000   0.3352   0.06321   0.05407  -0.0129  0.6771  1.0000  -0.8160   0.0000   0.0000   0.0000   0.2765
   7.250   0.3604   0.06909   0.05972  -0.0166  0.7052  1.0000  -0.8805   0.0000   0.0000   0.0000   0.2842
   7.500   0.3654   0.07147   0.06210  -0.0167  0.7052  1.0000  -0.9313   0.0000   0.0000   0.0000   0.2834
   7.750   0.3633   0.06975   0.06042  -0.0135  0.6687  1.0000  -0.9766   0.0000   0.0000   0.0000   0.2746
   8.000   0.3799   0.07234   0.06288  -0.0144  0.6640  1.0000  -1.0594   0.0000   0.0000   0.0000   0.2751
   8.250   0.4060   0.07564   0.06597  -0.0159  0.6586  1.0000  -1.1695   0.0000   0.0000   0.0000   0.2765
   8.500   0.4138   0.07589   0.06618  -0.0143  0.6256  1.0000  -1.2391   0.0000   0.0000   0.0000   0.2716
   8.750   0.4331   0.07844   0.06862  -0.0151  0.6155  1.0000  -1.3319   0.0000   0.0000   0.0000   0.2719
   9.000   0.4539   0.08184   0.07194  -0.0165  0.6096  1.0000  -1.4256   0.0000   0.0000   0.0000   0.2732
   9.250   0.4816   0.08647   0.07644  -0.0185  0.6047  1.0000  -1.5366   0.0000   0.0000   0.0000   0.2754
   9.500   0.4698   0.08571   0.07583  -0.0159  0.5695  1.0000  -1.5431   0.0000   0.0000   0.0000   0.2703
   9.750   0.5138   0.08978   0.07970  -0.0179  0.5560  1.0000  -1.7087   0.0000   0.0000   0.0000   0.2715
  10.000   0.5068   0.09022   0.08026  -0.0161  0.5221  1.0000  -1.7227   0.0000   0.0000   0.0000   0.2680
  10.250   0.5502   0.09410   0.08400  -0.0176  0.5056  1.0000  -1.8814   0.0000   0.0000   0.0000   0.2683
  10.500   0.5431   0.09490   0.08492  -0.0160  0.4706  1.0000  -1.8880   0.0000   0.0000   0.0000   0.2654
  10.750   0.6060   0.09926   0.08966  -0.0167  0.4476  1.0000  -2.1697   0.0000   0.0000   0.0000   0.2637
  11.000   0.5705   0.10049   0.09108  -0.0158  0.4198  1.0000  -2.0577   0.0000   0.0000   0.0000   0.2631
  11.250   0.5997   0.10158   0.09215  -0.0142  0.3813  1.0000  -2.1828   0.0000   0.0000   0.0000   0.2589
  11.500   0.6635   0.10299   0.09350  -0.0114  0.3475  1.0000  -2.3874   0.0000   0.0000   0.0000   0.2525
  11.750   0.6202   0.10792   0.09854  -0.0135  0.3333  1.0000  -2.2223   0.0000   0.0000   0.0000   0.2567
  12.000   0.6151   0.11228   0.10297  -0.0145  0.3180  1.0000  -2.1713   0.0000   0.0000   0.0000   0.2581
  12.250   0.6722   0.11587   0.10644  -0.0118  0.2974  1.0000  -2.3200   0.0000   0.0000   0.0000   0.2521
  12.500   0.6356   0.12068   0.11136  -0.0149  0.2887  1.0000  -2.1697   0.0000   0.0000   0.0000   0.2576
  12.750   0.6250   0.12388   0.11461  -0.0160  0.2696  1.0000  -2.1143   0.0000   0.0000   0.0000   0.2594
  13.000   0.6609   0.12657   0.11721  -0.0141  0.2535  1.0000  -2.2033   0.0000   0.0000   0.0000   0.2550
  13.250   0.6670   0.13264   0.12327  -0.0155  0.2514  1.0000  -2.1636   0.0000   0.0000   0.0000   0.2568
  13.500   0.6573   0.13863   0.12928  -0.0183  0.2523  1.0000  -2.0727   0.0000   0.0000   0.0000   0.2610
  13.750   0.6335   0.14417   0.13490  -0.0222  0.2572  1.0000  -1.9355   0.0000   0.0000   0.0000   0.2680
  14.000   0.6082   0.14959   0.14039  -0.0263  0.2690  1.0000  -1.7929   0.0000   0.0000   0.0000   0.2759
  14.250   0.5703   0.15900   0.15003  -0.0345  0.3675  1.0000  -1.5633   0.0000   0.0000   0.0000   0.2930
  14.500   0.5703   0.16300   0.15402  -0.0363  0.3727  1.0000  -1.5196   0.0000   0.0000   0.0000   0.2959
  14.750   0.5746   0.16691   0.15794  -0.0378  0.3729  1.0000  -1.4889   0.0000   0.0000   0.0000   0.2978
  15.000   0.5803   0.17073   0.16172  -0.0392  0.3711  1.0000  -1.4622   0.0000   0.0000   0.0000   0.2992
  15.250   0.5869   0.17459   0.16554  -0.0406  0.3689  1.0000  -1.4376   0.0000   0.0000   0.0000   0.3005
  15.500   0.5948   0.17860   0.16949  -0.0419  0.3660  1.0000  -1.4165   0.0000   0.0000   0.0000   0.3015
  15.750   0.6063   0.18325   0.17407  -0.0430  0.3615  1.0000  -1.4039   0.0000   0.0000   0.0000   0.3019
  16.000   0.6232   0.18961   0.18033  -0.0442  0.3567  1.0000  -1.4022   0.0000   0.0000   0.0000   0.3017
  16.250   0.6442   0.19858   0.18919  -0.0455  0.3530  1.0000  -1.4075   0.0000   0.0000   0.0000   0.3014
  16.500   0.6649   0.20933   0.19982  -0.0472  0.3508  1.0000  -1.4106   0.0000   0.0000   0.0000   0.3016
  17.000   0.6354   0.19968   0.19017  -0.0491  0.3301  1.0000  -1.3061   0.0000   0.0000   0.0000   0.3065
  17.250   0.6417   0.20254   0.19297  -0.0503  0.3244  1.0000  -1.2912   0.0000   0.0000   0.0000   0.3073
  17.500   0.6496   0.20593   0.19630  -0.0515  0.3198  1.0000  -1.2802   0.0000   0.0000   0.0000   0.3079
  17.750   0.6583   0.20967   0.19998  -0.0527  0.3160  1.0000  -1.2720   0.0000   0.0000   0.0000   0.3084
  18.000   0.6678   0.21375   0.20399  -0.0540  0.3128  1.0000  -1.2660   0.0000   0.0000   0.0000   0.3088
  18.250   0.6779   0.21822   0.20839  -0.0552  0.3100  1.0000  -1.2619   0.0000   0.0000   0.0000   0.3092
  18.500   0.6885   0.22314   0.21325  -0.0565  0.3077  1.0000  -1.2596   0.0000   0.0000   0.0000   0.3095
  18.750   0.7002   0.22913   0.21928  -0.0578  0.3055  1.0000  -1.2543   0.0000   0.0000   0.0000   0.3097
  19.000   0.7123   0.23562   0.22570  -0.0592  0.3037  1.0000  -1.2544   0.0000   0.0000   0.0000   0.3100
  19.250   0.7254   0.24328   0.23329  -0.0607  0.3022  1.0000  -1.2572   0.0000   0.0000   0.0000   0.3103
  20.250   0.7283   0.24494   0.23470  -0.0661  0.2875  1.0000  -1.1838   0.0000   0.0000   0.0000   0.3154
  20.500   0.7308   0.24459   0.23431  -0.0673  0.2793  1.0000  -1.1734   0.0000   0.0000   0.0000   0.3161
  20.750   0.7373   0.24693   0.23659  -0.0685  0.2733  1.0000  -1.1711   0.0000   0.0000   0.0000   0.3165
  21.000   0.7452   0.25010   0.23971  -0.0697  0.2683  1.0000  -1.1723   0.0000   0.0000   0.0000   0.3167
  21.250   0.7541   0.25392   0.24347  -0.0709  0.2640  1.0000  -1.1762   0.0000   0.0000   0.0000   0.3168
  21.500   0.7638   0.25843   0.24794  -0.0721  0.2605  1.0000  -1.1824   0.0000   0.0000   0.0000   0.3168
  21.750   0.7743   0.26376   0.25321  -0.0733  0.2575  1.0000  -1.1901   0.0000   0.0000   0.0000   0.3168
  22.000   0.7852   0.26999   0.25939  -0.0746  0.2552  1.0000  -1.1989   0.0000   0.0000   0.0000   0.3168
  22.250   0.7970   0.27756   0.26691  -0.0760  0.2532  1.0000  -1.2090   0.0000   0.0000   0.0000   0.3168
  22.500   0.8102   0.28736   0.27668  -0.0776  0.2515  1.0000  -1.2213   0.0000   0.0000   0.0000   0.3169
  22.750   0.8253   0.30069   0.28997  -0.0793  0.2499  1.0000  -1.2510   0.0000   0.0000   0.0000   0.3171
  23.000   0.8432   0.31964   0.30890  -0.0816  0.2485  1.0000  -1.2983   0.0000   0.0000   0.0000   0.3176
  23.250   0.8590   0.33923   0.32835  -0.0840  0.2474  1.0000  -1.3315   0.0000   0.0000   0.0000   0.3185
  23.500   0.8361   0.31100   0.30007  -0.0840  0.2454  1.0000  -1.2784   0.0000   0.0000   0.0000   0.3199
  23.750   0.8189   0.28886   0.27788  -0.0848  0.2385  1.0000  -1.2339   0.0000   0.0000   0.0000   0.3217
  24.000   0.8205   0.28776   0.27674  -0.0861  0.2319  1.0000  -1.2347   0.0000   0.0000   0.0000   0.3225
  24.250   0.8254   0.28972   0.27867  -0.0875  0.2263  1.0000  -1.2421   0.0000   0.0000   0.0000   0.3230
  24.500   0.8315   0.29267   0.28159  -0.0887  0.2211  1.0000  -1.2508   0.0000   0.0000   0.0000   0.3232
  24.750   0.8398   0.29683   0.28572  -0.0898  0.2140  1.0000  -1.2666   0.0000   0.0000   0.0000   0.3230
  25.000   0.8525   0.30447   0.29356  -0.0907  0.2069  1.0000  -1.3007   0.0000   0.0000   0.0000   0.3221


