xflr5 v6.61

 Calculated polar for: NACA 63-415

 3 1 Reynolds number ~ 1/CL         Mach number fixed         

 xtrf =   1.000 (top)        1.000 (bottom)
 Mach =   0.240     Re =     0.060 e 6     Ncrit =   9.000

  alpha     CL        CD       CDp       Cm    Top Xtr Bot Xtr   Cpmin    Chinge    XCp    
 ------- -------- --------- --------- -------- ------- ------- -------- --------- ---------
  -8.000  -0.6122   0.00838   0.00366  -0.0692  0.6982  0.0098  -4.3344   0.0000   0.0000   0.0000   0.1263
  -7.750  -0.5820   0.00821   0.00349  -0.0694  0.6956  0.0099  -4.1158   0.0000   0.0000   0.0000   0.1203
  -7.500  -0.5519   0.00806   0.00332  -0.0695  0.6906  0.0099  -3.9021   0.0000   0.0000   0.0000   0.1136
  -7.250  -0.5218   0.00793   0.00316  -0.0697  0.6826  0.0100  -3.6932   0.0000   0.0000   0.0000   0.1061
  -6.750  -0.4614   0.00769   0.00287  -0.0702  0.6595  0.0101  -3.2835   0.0000   0.0000   0.0000   0.0877
  -6.500  -0.4309   0.00753   0.00268  -0.0704  0.6507  0.0107  -3.1035   0.0000   0.0000   0.0000   0.0763
  -6.250  -0.4003   0.00739   0.00253  -0.0707  0.6496  0.0109  -2.9287   0.0000   0.0000   0.0000   0.0630
  -6.000  -0.3697   0.00725   0.00239  -0.0710  0.6482  0.0111  -2.7584   0.0000   0.0000   0.0000   0.0474
  -5.750  -0.3390   0.00712   0.00226  -0.0713  0.6460  0.0115  -2.5934   0.0000   0.0000   0.0000   0.0289
  -5.500  -0.3084   0.00700   0.00213  -0.0717  0.6418  0.0124  -2.4340   0.0000   0.0000   0.0000   0.0067
  -5.250  -0.2780   0.00687   0.00200  -0.0720  0.6346  0.0137  -2.2762   0.0000   0.0000   0.0000  -0.0203
  -5.000  -0.2475   0.00678   0.00189  -0.0723  0.6259  0.0142  -2.1208   0.0000   0.0000   0.0000  -0.0540
  -4.750  -0.2171   0.00654   0.00171  -0.0728  0.6163  0.0247  -1.9670   0.0000   0.0000   0.0000  -0.0976
  -4.500  -0.1864   0.00644   0.00161  -0.0732  0.6061  0.0265  -1.8149   0.0000   0.0000   0.0000  -0.1559
  -4.250  -0.1556   0.00636   0.00153  -0.0736  0.6004  0.0273  -1.6654   0.0000   0.0000   0.0000  -0.2377
  -4.000  -0.1247   0.00627   0.00143  -0.0740  0.5997  0.0283  -1.5140   0.0000   0.0000   0.0000  -0.3605
  -3.750  -0.0937   0.00619   0.00137  -0.0744  0.5985  0.0305  -1.3741   0.0000   0.0000   0.0000  -0.5643
  -3.500  -0.0628   0.00612   0.00131  -0.0748  0.5967  0.0344  -1.2383   0.0000   0.0000   0.0000  -0.9684
  -3.250  -0.0320   0.00606   0.00125  -0.0752  0.5933  0.0383  -1.1067   0.0000   0.0000   0.0000  -2.1487
  -3.000  -0.0013   0.00601   0.00120  -0.0756  0.5873  0.0423  -0.9796   0.0000   0.0000   0.0000  -57.4906
  -2.750   0.0263   0.00623   0.00121  -0.0759  0.6232  0.1977  -0.8621   0.0000   0.0000   0.0000   3.1801
  -2.500   0.0535   0.00618   0.00139  -0.0767  0.6490  0.4483  -0.7585   0.0000   0.0000   0.0000   1.7057
  -2.250   0.0819   0.00690   0.00188  -0.0768  0.6703  0.5126  -0.6679   0.0000   0.0000   0.0000   1.1994
  -2.000   0.1108   0.00782   0.00257  -0.0769  0.6836  0.5497  -0.5886   0.0000   0.0000   0.0000   0.9517
  -1.750   0.1379   0.00874   0.00338  -0.0765  0.6904  0.5898  -0.6034   0.0000   0.0000   0.0000   0.8101
  -1.500   0.1653   0.00968   0.00408  -0.0763  0.6951  0.6106  -0.6180   0.0000   0.0000   0.0000   0.7150
  -1.250   0.1914   0.01063   0.00491  -0.0757  0.6979  0.6285  -0.6319   0.0000   0.0000   0.0000   0.6476
  -1.000   0.2178   0.01174   0.00582  -0.0752  0.6999  0.6446  -0.6456   0.0000   0.0000   0.0000   0.5964
  -0.750   0.2430   0.01253   0.00648  -0.0746  0.7018  0.6608  -0.6586   0.0000   0.0000   0.0000   0.5574
  -0.500   0.2665   0.01339   0.00728  -0.0733  0.7043  0.6745  -0.6709   0.0000   0.0000   0.0000   0.5250
   0.000   0.3142   0.01528   0.00893  -0.0717  0.7063  0.7024  -0.6979   0.0000   0.0000   0.0000   0.4772
   0.250   0.3332   0.01608   0.00972  -0.0696  0.7049  0.7155  -0.7104   0.0000   0.0000   0.0000   0.4576
   0.500   0.3524   0.01711   0.01071  -0.0678  0.7032  0.7281  -0.7225   0.0000   0.0000   0.0000   0.4406
   0.750   0.3720   0.01831   0.01182  -0.0666  0.7009  0.7413  -0.7337   0.0000   0.0000   0.0000   0.4268
   1.000   0.3911   0.01910   0.01255  -0.0654  0.6996  0.7533  -0.7459   0.0000   0.0000   0.0000   0.4149
   1.250   0.4037   0.01963   0.01314  -0.0625  0.6961  0.7641  -0.7574   0.0000   0.0000   0.0000   0.4020
   1.500   0.4153   0.02034   0.01387  -0.0595  0.6912  0.7752  -0.7679   0.0000   0.0000   0.0000   0.3903
   1.750   0.4266   0.02120   0.01472  -0.0571  0.6859  0.7874  -0.7772   0.0000   0.0000   0.0000   0.3805
   2.000   0.4388   0.02219   0.01567  -0.0553  0.6804  0.7987  -0.7862   0.0000   0.0000   0.0000   0.3723
   2.250   0.4462   0.02265   0.01616  -0.0519  0.6745  0.8095  -0.7935   0.0000   0.0000   0.0000   0.3623
   2.500   0.4541   0.02323   0.01676  -0.0481  0.6691  0.8213  -0.8046   0.0000   0.0000   0.0000   0.3516
   2.750   0.4657   0.02385   0.01735  -0.0451  0.6646  0.8365  -0.8189   0.0000   0.0000   0.0000   0.3421
   3.000   0.4809   0.02457   0.01799  -0.0430  0.6609  0.8513  -0.8349   0.0000   0.0000   0.0000   0.3344
   3.250   0.4921   0.02494   0.01835  -0.0394  0.6572  0.8659  -0.8534   0.0000   0.0000   0.0000   0.3248
   3.500   0.5049   0.02588   0.01927  -0.0367  0.6538  0.8819  -0.8723   0.0000   0.0000   0.0000   0.3172
   3.750   0.4777   0.02662   0.02025  -0.0301  0.6363  0.8883  -0.8607   0.0000   0.0000   0.0000   0.3070
   4.000   0.4727   0.02729   0.02099  -0.0259  0.6251  0.9005  -0.8699   0.0000   0.0000   0.0000   0.2984
   4.250   0.4794   0.02781   0.02155  -0.0226  0.6183  0.9205  -0.8898   0.0000   0.0000   0.0000   0.2906
   4.500   0.4947   0.02862   0.02232  -0.0209  0.6135  0.9440  -0.9190   0.0000   0.0000   0.0000   0.2854
   4.750   0.5351   0.03142   0.02502  -0.0268  0.6104  0.9749  -0.9679   0.0000   0.0000   0.0000   0.2930
   5.000   0.5767   0.03454   0.02804  -0.0335  0.6078  1.0000  -1.0427   0.0000   0.0000   0.0000   0.3009
   5.250   0.5875   0.03437   0.02780  -0.0310  0.6046  1.0000  -1.0943   0.0000   0.0000   0.0000   0.2954
   5.500   0.5392   0.03583   0.02947  -0.0243  0.5761  1.0000  -1.0486   0.0000   0.0000   0.0000   0.2870
   5.750   0.5590   0.03696   0.03050  -0.0248  0.5692  1.0000  -1.1092   0.0000   0.0000   0.0000   0.2860
   6.000   0.5817   0.03819   0.03164  -0.0254  0.5644  1.0000  -1.1967   0.0000   0.0000   0.0000   0.2852
   6.250   0.6079   0.03926   0.03260  -0.0260  0.5601  1.0000  -1.3254   0.0000   0.0000   0.0000   0.2840
   6.500   0.6402   0.04007   0.03331  -0.0267  0.5564  1.0000  -1.4765   0.0000   0.0000   0.0000   0.2828
   6.750   0.6766   0.04083   0.03396  -0.0275  0.5531  1.0000  -1.6447   0.0000   0.0000   0.0000   0.2815
   7.000   0.6306   0.04345   0.03677  -0.0225  0.5230  1.0000  -1.5693   0.0000   0.0000   0.0000   0.2760
   7.250   0.6532   0.04446   0.03774  -0.0224  0.5159  1.0000  -1.6976   0.0000   0.0000   0.0000   0.2743
   7.500   0.6827   0.04508   0.03831  -0.0223  0.5101  1.0000  -1.8522   0.0000   0.0000   0.0000   0.2724
   7.750   0.7229   0.04509   0.03827  -0.0224  0.5055  1.0000  -2.0474   0.0000   0.0000   0.0000   0.2706
   8.000   0.6995   0.04766   0.04095  -0.0195  0.4820  1.0000  -2.0344   0.0000   0.0000   0.0000   0.2670
   8.250   0.7227   0.04782   0.04149  -0.0184  0.4679  1.0000  -2.2343   0.0000   0.0000   0.0000   0.2642
   8.500   0.7675   0.04661   0.04031  -0.0177  0.4600  1.0000  -2.4791   0.0000   0.0000   0.0000   0.2615
   8.750   0.8585   0.04169   0.03545  -0.0174  0.4531  1.0000  -2.9010   0.0000   0.0000   0.0000   0.2586
   9.000   0.8050   0.04619   0.04006  -0.0137  0.4244  1.0000  -2.7731   0.0000   0.0000   0.0000   0.2548
   9.250   0.9352   0.03675   0.03055  -0.0124  0.3948  1.0000  -3.3586   0.0000   0.0000   0.0000   0.2507
   9.500   0.9457   0.03547   0.02904  -0.0082  0.3444  1.0000  -3.4877   0.0000   0.0000   0.0000   0.2456
   9.750   0.9387   0.03625   0.02944  -0.0043  0.2905  1.0000  -3.5403   0.0000   0.0000   0.0000   0.2410
  10.000   0.9287   0.03813   0.03086  -0.0011  0.2397  1.0000  -3.5622   0.0000   0.0000   0.0000   0.2371
  10.250   0.9237   0.04060   0.03284   0.0015  0.1937  1.0000  -3.5732   0.0000   0.0000   0.0000   0.2338
  10.750   0.9525   0.04652   0.03877   0.0046  0.1399  1.0000  -3.6110   0.0000   0.0000   0.0000   0.2301
  11.000   0.9528   0.04924   0.04170   0.0059  0.1294  1.0000  -3.6135   0.0000   0.0000   0.0000   0.2284
  11.250   0.9507   0.05159   0.04407   0.0070  0.1177  1.0000  -3.6364   0.0000   0.0000   0.0000   0.2268
  11.500   0.9548   0.05427   0.04670   0.0078  0.1070  1.0000  -3.6678   0.0000   0.0000   0.0000   0.2256
  11.750   0.9575   0.05965   0.05228   0.0080  0.0990  1.0000  -3.6231   0.0000   0.0000   0.0000   0.2251
  12.000   0.9406   0.06437   0.05726   0.0081  0.0953  1.0000  -3.5623   0.0000   0.0000   0.0000   0.2245
  12.250   0.9296   0.06735   0.06043   0.0081  0.0921  1.0000  -3.5519   0.0000   0.0000   0.0000   0.2239
  12.500   0.9191   0.07091   0.06415   0.0077  0.0885  1.0000  -3.5343   0.0000   0.0000   0.0000   0.2238
  12.750   0.9094   0.07481   0.06819   0.0069  0.0851  1.0000  -3.5145   0.0000   0.0000   0.0000   0.2241
  13.000   0.9001   0.07903   0.07254   0.0058  0.0822  1.0000  -3.4901   0.0000   0.0000   0.0000   0.2249
  13.250   0.8878   0.08381   0.07746   0.0041  0.0801  1.0000  -3.4498   0.0000   0.0000   0.0000   0.2263
  13.500   0.8755   0.08891   0.08270   0.0021  0.0783  1.0000  -3.4041   0.0000   0.0000   0.0000   0.2281
  13.750   0.8638   0.09432   0.08821  -0.0003  0.0767  1.0000  -3.3545   0.0000   0.0000   0.0000   0.2305
  14.000   0.8522   0.10014   0.09412  -0.0030  0.0753  1.0000  -3.2955   0.0000   0.0000   0.0000   0.2333
  14.250   0.8387   0.10667   0.10075  -0.0062  0.0741  1.0000  -3.2157   0.0000   0.0000   0.0000   0.2369
  14.500   0.8210   0.11437   0.10855  -0.0103  0.0730  1.0000  -3.0983   0.0000   0.0000   0.0000   0.2418
  14.750   0.8006   0.12325   0.11754  -0.0152  0.0722  1.0000  -2.9407   0.0000   0.0000   0.0000   0.2481
  15.250   0.7711   0.14060   0.13501  -0.0248  0.0722  1.0000  -2.6216   0.0000   0.0000   0.0000   0.2611
  16.750   0.7377   0.20739   0.20176  -0.0522  0.1456  1.0000  -1.5196   0.0000   0.0000   0.0000   0.3004
  17.000   0.7412   0.21101   0.20543  -0.0541  0.1452  1.0000  -1.4911   0.0000   0.0000   0.0000   0.3023
  17.250   0.7154   0.20095   0.19530  -0.0573  0.1331  1.0000  -1.4040   0.0000   0.0000   0.0000   0.3087
  17.750   0.7237   0.20734   0.20169  -0.0609  0.1261  1.0000  -1.3657   0.0000   0.0000   0.0000   0.3120
  18.000   0.7294   0.21068   0.20499  -0.0625  0.1234  1.0000  -1.3548   0.0000   0.0000   0.0000   0.3133
  18.250   0.7356   0.21401   0.20829  -0.0641  0.1210  1.0000  -1.3474   0.0000   0.0000   0.0000   0.3143
  18.500   0.7422   0.21731   0.21155  -0.0657  0.1187  1.0000  -1.3430   0.0000   0.0000   0.0000   0.3152
  18.750   0.7492   0.22051   0.21471  -0.0671  0.1165  1.0000  -1.3416   0.0000   0.0000   0.0000   0.3159
  19.000   0.7565   0.22367   0.21783  -0.0685  0.1145  1.0000  -1.3431   0.0000   0.0000   0.0000   0.3165
  19.250   0.7643   0.22685   0.22097  -0.0699  0.1125  1.0000  -1.3475   0.0000   0.0000   0.0000   0.3170
  19.500   0.7725   0.23012   0.22420  -0.0712  0.1106  1.0000  -1.3549   0.0000   0.0000   0.0000   0.3172
  19.750   0.7812   0.23353   0.22758  -0.0724  0.1088  1.0000  -1.3654   0.0000   0.0000   0.0000   0.3174
  20.000   0.7905   0.23719   0.23120  -0.0736  0.1071  1.0000  -1.3791   0.0000   0.0000   0.0000   0.3174
  20.250   0.8015   0.24140   0.23538  -0.0747  0.1052  1.0000  -1.4022   0.0000   0.0000   0.0000   0.3170
  20.500   0.8245   0.25028   0.24421  -0.0748  0.1015  1.0000  -1.4836   0.0000   0.0000   0.0000   0.3143
  20.750   0.8349   0.27312   0.26697  -0.0781  0.0961  1.0000  -1.4503   0.0000   0.0000   0.0000   0.3171
  21.000   0.8341   0.26797   0.26178  -0.0794  0.0948  1.0000  -1.4391   0.0000   0.0000   0.0000   0.3181
  21.250   0.8199   0.25457   0.24835  -0.0815  0.0890  1.0000  -1.3774   0.0000   0.0000   0.0000   0.3214
  21.500   0.8223   0.25515   0.24890  -0.0834  0.0841  1.0000  -1.3645   0.0000   0.0000   0.0000   0.3229
  21.750   0.8289   0.25777   0.25149  -0.0848  0.0805  1.0000  -1.3760   0.0000   0.0000   0.0000   0.3233
  22.000   0.8380   0.26116   0.25485  -0.0859  0.0775  1.0000  -1.4131   0.0000   0.0000   0.0000   0.3230
  22.250   0.8502   0.26596   0.25962  -0.0867  0.0751  1.0000  -1.4692   0.0000   0.0000   0.0000   0.3220
  22.500   0.8670   0.27423   0.26786  -0.0873  0.0734  1.0000  -1.5380   0.0000   0.0000   0.0000   0.3203


