xflr5 v6.61

 Calculated polar for: NACA 63A-516

 3 1 Reynolds number ~ 1/CL         Mach number fixed         

 xtrf =   1.000 (top)        1.000 (bottom)
 Mach =   0.240     Re =     0.060 e 6     Ncrit =   9.000

  alpha     CL        CD       CDp       Cm    Top Xtr Bot Xtr   Cpmin    Chinge    XCp    
 ------- -------- --------- --------- -------- ------- ------- -------- --------- ---------
  -7.250  -0.3323   0.00801   0.00362  -0.1109  0.7224  0.0157  -3.0975   0.0000   0.0000   0.0000  -0.1015
  -5.750  -0.1813   0.00684   0.00209  -0.1058  0.6867  0.0157  -2.3139   0.0000   0.0000   0.0000  -0.3570
  -5.500  -0.1558   0.00677   0.00197  -0.1051  0.6776  0.0157  -2.1765   0.0000   0.0000   0.0000  -0.4498
  -5.250  -0.1298   0.00668   0.00186  -0.1044  0.6703  0.0158  -2.0404   0.0000   0.0000   0.0000  -0.5829
  -5.000  -0.1046   0.00654   0.00173  -0.1036  0.6670  0.0216  -1.9311   0.0000   0.0000   0.0000  -0.7738
  -4.750  -0.0796   0.00645   0.00164  -0.1027  0.6608  0.0239  -1.7976   0.0000   0.0000   0.0000  -1.0817
  -4.250  -0.0315   0.00627   0.00147  -0.1006  0.6436  0.0364  -1.5439   0.0000   0.0000   0.0000  -3.0293
  -4.000  -0.0056   0.00618   0.00140  -0.0999  0.6408  0.0422  -1.4172   0.0000   0.0000   0.0000  -17.9398
  -3.750   0.0176   0.00653   0.00149  -0.0986  0.6669  0.0765  -1.2956   0.0000   0.0000   0.0000   6.0000
  -3.250   0.0541   0.00684   0.00172  -0.0950  0.7172  0.3269  -1.0859   0.0000   0.0000   0.0000   2.0440
  -3.000   0.0765   0.00717   0.00201  -0.0942  0.7300  0.4357  -0.9754   0.0000   0.0000   0.0000   1.5050
  -2.750   0.0990   0.00766   0.00244  -0.0931  0.7403  0.5023  -0.8681   0.0000   0.0000   0.0000   1.2081
  -2.500   0.1243   0.00840   0.00297  -0.0926  0.7489  0.5395  -0.7585   0.0000   0.0000   0.0000   1.0071
  -2.250   0.1484   0.00914   0.00351  -0.0917  0.7541  0.5688  -0.6774   0.0000   0.0000   0.0000   0.8772
  -2.000   0.1674   0.00975   0.00397  -0.0897  0.7559  0.5898  -0.6566   0.0000   0.0000   0.0000   0.7931
  -1.750   0.1857   0.01042   0.00450  -0.0876  0.7565  0.6106  -0.6674   0.0000   0.0000   0.0000   0.7267
  -1.500   0.2046   0.01108   0.00510  -0.0855  0.7568  0.6295  -0.6783   0.0000   0.0000   0.0000   0.6717
  -1.250   0.2231   0.01175   0.00562  -0.0834  0.7564  0.6468  -0.6887   0.0000   0.0000   0.0000   0.6267
  -1.000   0.2420   0.01249   0.00625  -0.0814  0.7556  0.6638  -0.7002   0.0000   0.0000   0.0000   0.5882
  -0.750   0.2614   0.01317   0.00681  -0.0796  0.7545  0.6780  -0.7122   0.0000   0.0000   0.0000   0.5556
  -0.500   0.2808   0.01392   0.00742  -0.0778  0.7532  0.6932  -0.7240   0.0000   0.0000   0.0000   0.5275
  -0.250   0.2841   0.01416   0.00768  -0.0727  0.7454  0.7016  -0.7278   0.0000   0.0000   0.0000   0.5057
   0.000   0.2959   0.01469   0.00819  -0.0694  0.7409  0.7135  -0.7355   0.0000   0.0000   0.0000   0.4837
   0.250   0.3085   0.01522   0.00861  -0.0664  0.7370  0.7262  -0.7448   0.0000   0.0000   0.0000   0.4638
   0.500   0.3241   0.01583   0.00919  -0.0640  0.7341  0.7397  -0.7556   0.0000   0.0000   0.0000   0.4455
   0.750   0.3400   0.01644   0.00969  -0.0617  0.7314  0.7550  -0.7664   0.0000   0.0000   0.0000   0.4291
   1.000   0.3580   0.01710   0.01026  -0.0598  0.7292  0.7716  -0.7780   0.0000   0.0000   0.0000   0.4144
   1.250   0.3772   0.01779   0.01087  -0.0584  0.7272  0.7882  -0.7899   0.0000   0.0000   0.0000   0.4015
   1.500   0.3631   0.01784   0.01105  -0.0502  0.7131  0.7934  -0.7849   0.0000   0.0000   0.0000   0.3844
   1.750   0.3747   0.01839   0.01158  -0.0473  0.7086  0.8099  -0.7941   0.0000   0.0000   0.0000   0.3721
   2.000   0.3914   0.01914   0.01230  -0.0457  0.7054  0.8305  -0.8052   0.0000   0.0000   0.0000   0.3624
   2.250   0.4157   0.02030   0.01344  -0.0462  0.7032  0.8565  -0.8189   0.0000   0.0000   0.0000   0.3564
   2.500   0.4507   0.02223   0.01534  -0.0499  0.7016  0.8941  -0.8357   0.0000   0.0000   0.0000   0.3557
   2.750   0.5126   0.02671   0.01976  -0.0624  0.7011  0.9529  -0.8599   0.0000   0.0000   0.0000   0.3666
   3.000   0.5099   0.02992   0.02304  -0.0627  0.6830  1.0000  -0.8519   0.0000   0.0000   0.0000   0.3675
   3.250   0.5237   0.03088   0.02384  -0.0617  0.6785  1.0000  -0.8649   0.0000   0.0000   0.0000   0.3621
   3.750   0.5610   0.03339   0.02601  -0.0612  0.6734  1.0000  -0.8993   0.0000   0.0000   0.0000   0.3527
   4.000   0.5397   0.03556   0.02827  -0.0560  0.6540  1.0000  -0.8861   0.0000   0.0000   0.0000   0.3468
   4.250   0.5567   0.03692   0.02950  -0.0555  0.6499  1.0000  -0.9039   0.0000   0.0000   0.0000   0.3424
   4.500   0.5768   0.03827   0.03071  -0.0553  0.6472  1.0000  -0.9259   0.0000   0.0000   0.0000   0.3384
   4.750   0.5980   0.03971   0.03201  -0.0553  0.6450  1.0000  -0.9513   0.0000   0.0000   0.0000   0.3347
   5.000   0.5820   0.04197   0.03435  -0.0513  0.6266  1.0000  -0.9445   0.0000   0.0000   0.0000   0.3299
   5.250   0.5985   0.04341   0.03570  -0.0507  0.6217  1.0000  -0.9697   0.0000   0.0000   0.0000   0.3263
   5.500   0.6189   0.04481   0.03705  -0.0505  0.6185  1.0000  -1.0012   0.0000   0.0000   0.0000   0.3229
   5.750   0.6422   0.04617   0.03830  -0.0506  0.6160  1.0000  -1.0398   0.0000   0.0000   0.0000   0.3198
   6.000   0.6288   0.04861   0.04083  -0.0475  0.5985  1.0000  -1.0376   0.0000   0.0000   0.0000   0.3160
   6.250   0.6453   0.05007   0.04223  -0.0469  0.5925  1.0000  -1.0718   0.0000   0.0000   0.0000   0.3129
   6.500   0.6678   0.05136   0.04343  -0.0468  0.5887  1.0000  -1.1177   0.0000   0.0000   0.0000   0.3100
   6.750   0.6939   0.05261   0.04460  -0.0469  0.5859  1.0000  -1.1755   0.0000   0.0000   0.0000   0.3073
   7.000   0.6791   0.05520   0.04729  -0.0441  0.5667  1.0000  -1.1764   0.0000   0.0000   0.0000   0.3042
   7.250   0.7007   0.05639   0.04842  -0.0438  0.5607  1.0000  -1.2340   0.0000   0.0000   0.0000   0.3014
   7.500   0.7284   0.05739   0.04935  -0.0437  0.5569  1.0000  -1.3105   0.0000   0.0000   0.0000   0.2988
   7.750   0.7208   0.05987   0.05191  -0.0417  0.5393  1.0000  -1.3253   0.0000   0.0000   0.0000   0.2961
   8.000   0.7414   0.06093   0.05295  -0.0411  0.5311  1.0000  -1.3926   0.0000   0.0000   0.0000   0.2933
   8.250   0.7725   0.06154   0.05351  -0.0409  0.5265  1.0000  -1.4806   0.0000   0.0000   0.0000   0.2906
   8.500   0.7651   0.06407   0.05612  -0.0390  0.5075  1.0000  -1.4972   0.0000   0.0000   0.0000   0.2882
   8.750   0.7906   0.06467   0.05680  -0.0383  0.4991  1.0000  -1.5979   0.0000   0.0000   0.0000   0.2854
   9.000   0.8299   0.06437   0.05647  -0.0378  0.4946  1.0000  -1.7513   0.0000   0.0000   0.0000   0.2823
   9.250   0.8154   0.06733   0.05955  -0.0358  0.4719  1.0000  -1.7583   0.0000   0.0000   0.0000   0.2802
   9.500   0.8547   0.06657   0.05878  -0.0349  0.4656  1.0000  -1.9233   0.0000   0.0000   0.0000   0.2768
   9.750   0.8472   0.06923   0.06153  -0.0332  0.4444  1.0000  -1.9576   0.0000   0.0000   0.0000   0.2747
  10.000   0.8877   0.06774   0.06006  -0.0317  0.4360  1.0000  -2.1611   0.0000   0.0000   0.0000   0.2709
  10.250   0.8875   0.06977   0.06217  -0.0300  0.4157  1.0000  -2.2225   0.0000   0.0000   0.0000   0.2686
  10.500   0.9349   0.06662   0.05904  -0.0275  0.4057  1.0000  -2.4651   0.0000   0.0000   0.0000   0.2638
  10.750   0.9428   0.06749   0.05999  -0.0255  0.3853  1.0000  -2.5621   0.0000   0.0000   0.0000   0.2609
  11.000   1.0652   0.05531   0.04781  -0.0206  0.3683  1.0000  -3.1109   0.0000   0.0000   0.0000   0.2530
  11.250   1.0864   0.05429   0.04671  -0.0175  0.3354  1.0000  -3.2659   0.0000   0.0000   0.0000   0.2492
  11.500   1.1002   0.05428   0.04653  -0.0144  0.3001  1.0000  -3.3892   0.0000   0.0000   0.0000   0.2457
  11.750   1.1159   0.05485   0.04681  -0.0117  0.2660  1.0000  -3.5088   0.0000   0.0000   0.0000   0.2426
  12.000   1.1255   0.05652   0.04824  -0.0094  0.2379  1.0000  -3.5973   0.0000   0.0000   0.0000   0.2400
  12.250   1.1278   0.05890   0.05050  -0.0074  0.2154  1.0000  -3.6695   0.0000   0.0000   0.0000   0.2378
  12.500   1.1368   0.06130   0.05276  -0.0057  0.1958  1.0000  -3.7725   0.0000   0.0000   0.0000   0.2359
  12.750   1.1649   0.06367   0.05484  -0.0043  0.1772  1.0000  -3.9333   0.0000   0.0000   0.0000   0.2343
  13.000   1.1411   0.06783   0.05942  -0.0031  0.1701  1.0000  -3.8955   0.0000   0.0000   0.0000   0.2327
  13.250   1.1624   0.07001   0.06127  -0.0017  0.1541  1.0000  -4.0515   0.0000   0.0000   0.0000   0.2312
  13.500   1.1339   0.07452   0.06622  -0.0011  0.1489  1.0000  -3.9929   0.0000   0.0000   0.0000   0.2301
  13.750   1.1170   0.07886   0.07082  -0.0009  0.1421  1.0000  -3.9781   0.0000   0.0000   0.0000   0.2294
  14.000   1.1313   0.08187   0.07373   0.0001  0.1344  1.0000  -4.0830   0.0000   0.0000   0.0000   0.2281
  14.250   1.1109   0.08740   0.07951  -0.0003  0.1309  1.0000  -4.0331   0.0000   0.0000   0.0000   0.2280
  14.500   1.0731   0.09422   0.08673  -0.0024  0.1286  1.0000  -3.9083   0.0000   0.0000   0.0000   0.2295
  14.750   1.0332   0.10249   0.09534  -0.0060  0.1262  1.0000  -3.7566   0.0000   0.0000   0.0000   0.2325
  15.000   0.9884   0.11282   0.10598  -0.0115  0.1240  1.0000  -3.5537   0.0000   0.0000   0.0000   0.2380
  15.250   0.9358   0.12652   0.11993  -0.0196  0.1221  1.0000  -3.2565   0.0000   0.0000   0.0000   0.2471
  15.500   0.8949   0.14048   0.13402  -0.0276  0.1196  1.0000  -2.9647   0.0000   0.0000   0.0000   0.2569
  15.750   0.8883   0.14706   0.14063  -0.0303  0.1164  1.0000  -2.9078   0.0000   0.0000   0.0000   0.2598
  16.000   0.9170   0.14415   0.13762  -0.0258  0.1116  1.0000  -3.1620   0.0000   0.0000   0.0000   0.2531
  16.250   0.8821   0.15871   0.15227  -0.0342  0.1109  1.0000  -2.8449   0.0000   0.0000   0.0000   0.2639
  16.500   0.8629   0.16956   0.16314  -0.0403  0.1098  1.0000  -2.6365   0.0000   0.0000   0.0000   0.2718
  16.750   0.8489   0.17867   0.17226  -0.0456  0.1084  1.0000  -2.4722   0.0000   0.0000   0.0000   0.2786
  17.000   0.8409   0.18613   0.17972  -0.0498  0.1063  1.0000  -2.3576   0.0000   0.0000   0.0000   0.2839
  17.250   0.8377   0.19244   0.18603  -0.0532  0.1046  1.0000  -2.2821   0.0000   0.0000   0.0000   0.2879
  17.500   0.8211   0.20924   0.20293  -0.0618  0.1591  1.0000  -1.9060   0.0000   0.0000   0.0000   0.3001
  17.750   0.8244   0.21403   0.20771  -0.0640  0.1590  1.0000  -1.8823   0.0000   0.0000   0.0000   0.3021
  18.000   0.8323   0.21882   0.21248  -0.0654  0.1581  1.0000  -1.8870   0.0000   0.0000   0.0000   0.3027
  18.250   0.8426   0.22410   0.21775  -0.0664  0.1571  1.0000  -1.9039   0.0000   0.0000   0.0000   0.3026
  18.500   0.8558   0.23065   0.22429  -0.0670  0.1561  1.0000  -1.9343   0.0000   0.0000   0.0000   0.3017
  18.750   0.8715   0.23920   0.23283  -0.0672  0.1552  1.0000  -1.9737   0.0000   0.0000   0.0000   0.3002


